Initialize SIGNATURE TABLE
ST_SET: 1
ST_WAY: 256
ST_TAG_BIT: 16
ST_TAG_MASK: ffff

Initialize PATTERN TABLE
PT_SET: 512
PT_WAY: 4
SIG_DELTA_BIT: 7
C_SIG_BIT: 4
C_DELTA_BIT: 4

Initialize PREFETCH FILTER
FILTER_SET: 1024

*** ChampSim Multicore Out-of-Order Simulator ***

Warmup Instructions: 50000000
Simulation Instructions: 50000000
Number of CPUs: 1
LLC sets: 2048
LLC ways: 16
Off-chip DRAM Size: 4096 MB Channels: 1 Width: 64-bit Data Rate: 3200 MT/s

CPU 0 runs /home/jen/CompArch/ChampSim/dpc3_traces/600.perlbench_s-210B.champsimtrace.xz
CPU 0 L1I next line prefetcher
CPU 0 L1D next line prefetcher
Heartbeat CPU 0 instructions: 10000000 cycles: 3913415 heartbeat IPC: 2.55531 cumulative IPC: 2.55531 (Simulation time: 0 hr 0 min 13 sec) 
Heartbeat CPU 0 instructions: 20000000 cycles: 7798226 heartbeat IPC: 2.57413 cumulative IPC: 2.56469 (Simulation time: 0 hr 0 min 27 sec) 
Heartbeat CPU 0 instructions: 30000002 cycles: 11686387 heartbeat IPC: 2.57191 cumulative IPC: 2.56709 (Simulation time: 0 hr 0 min 41 sec) 
Heartbeat CPU 0 instructions: 40000000 cycles: 15533181 heartbeat IPC: 2.59957 cumulative IPC: 2.57513 (Simulation time: 0 hr 0 min 54 sec) 
Heartbeat CPU 0 instructions: 50000003 cycles: 19428595 heartbeat IPC: 2.56712 cumulative IPC: 2.57353 (Simulation time: 0 hr 1 min 8 sec) 

Warmup complete CPU 0 instructions: 50000003 cycles: 19428595 (Simulation time: 0 hr 1 min 8 sec) 

Heartbeat CPU 0 instructions: 60000002 cycles: 26259383 heartbeat IPC: 1.46396 cumulative IPC: 1.46396 (Simulation time: 0 hr 1 min 22 sec) 
Heartbeat CPU 0 instructions: 70000000 cycles: 31026703 heartbeat IPC: 2.09761 cumulative IPC: 1.72442 (Simulation time: 0 hr 1 min 35 sec) 
Heartbeat CPU 0 instructions: 80000001 cycles: 36006356 heartbeat IPC: 2.00817 cumulative IPC: 1.80965 (Simulation time: 0 hr 1 min 49 sec) 
Heartbeat CPU 0 instructions: 90000002 cycles: 42800563 heartbeat IPC: 1.47184 cumulative IPC: 1.71145 (Simulation time: 0 hr 2 min 2 sec) 
Heartbeat CPU 0 instructions: 100000003 cycles: 49681711 heartbeat IPC: 1.45325 cumulative IPC: 1.65272 (Simulation time: 0 hr 2 min 15 sec) 
Finished CPU 0 instructions: 50000000 cycles: 30253116 cumulative IPC: 1.65272 (Simulation time: 0 hr 2 min 15 sec) 

ChampSim completed all CPUs

Region of Interest Statistics

CPU 0 cumulative IPC: 1.65272 instructions: 50000000 cycles: 30253116
L1D TOTAL     ACCESS:   24916094  HIT:   24909051  MISS:       7043
L1D LOAD      ACCESS:    7125329  HIT:    7122791  MISS:       2538
L1D RFO       ACCESS:   10824335  HIT:   10824085  MISS:        250
L1D PREFETCH  ACCESS:    6966430  HIT:    6962175  MISS:       4255
L1D WRITEBACK ACCESS:          0  HIT:          0  MISS:          0
L1D PREFETCH  REQUESTED:    7125585  ISSUED:    7085046  USEFUL:       2507  USELESS:       1740
L1D AVERAGE MISS LATENCY: 60.8831 cycles
L1I TOTAL     ACCESS:    7975284  HIT:    7973675  MISS:       1609
L1I LOAD      ACCESS:    7974417  HIT:    7973288  MISS:       1129
L1I RFO       ACCESS:          0  HIT:          0  MISS:          0
L1I PREFETCH  ACCESS:        867  HIT:        387  MISS:        480
L1I WRITEBACK ACCESS:          0  HIT:          0  MISS:          0
L1I PREFETCH  REQUESTED:       1440  ISSUED:       1440  USEFUL:        149  USELESS:        340
L1I AVERAGE MISS LATENCY: 15.9236 cycles
L2C TOTAL     ACCESS:      13754  HIT:      11304  MISS:       2450
L2C LOAD      ACCESS:       3493  HIT:       2296  MISS:       1197
L2C RFO       ACCESS:        250  HIT:         66  MISS:        184
L2C PREFETCH  ACCESS:       9387  HIT:       8318  MISS:       1069
L2C WRITEBACK ACCESS:        624  HIT:        624  MISS:          0
L2C PREFETCH  REQUESTED:       9385  ISSUED:       9385  USEFUL:         75  USELESS:        233
L2C AVERAGE MISS LATENCY: 135.207 cycles
LLC TOTAL     ACCESS:       4376  HIT:       1445  MISS:       2931
LLC LOAD      ACCESS:       1197  HIT:        268  MISS:        929
LLC RFO       ACCESS:        184  HIT:          2  MISS:        182
LLC PREFETCH  ACCESS:       2940  HIT:       1120  MISS:       1820
LLC WRITEBACK ACCESS:         55  HIT:         55  MISS:          0
LLC PREFETCH  REQUESTED:          0  ISSUED:          0  USEFUL:        264  USELESS:          0
LLC AVERAGE MISS LATENCY: 133.847 cycles
Major fault: 0 Minor fault: 684
CPU 0 L1I next line prefetcher final stats
CPU 0 L1D next line prefetcher final stats

DRAM Statistics
 CHANNEL 0
 RQ ROW_BUFFER_HIT:       1293  ROW_BUFFER_MISS:       1638
 DBUS_CONGESTED:       1016
 WQ ROW_BUFFER_HIT:          0  ROW_BUFFER_MISS:          0  FULL:          0

 AVG_CONGESTED_CYCLE: 3

CPU 0 Branch Prediction Accuracy: 99.3421% MPKI: 0.91044 Average ROB Occupancy at Mispredict: 180.574

Branch types
NOT_BRANCH: 43080723 86.1614%
BRANCH_DIRECT_JUMP: 1038017 2.07603%
BRANCH_INDIRECT: 413789 0.827578%
BRANCH_CONDITIONAL: 4872387 9.74477%
BRANCH_DIRECT_CALL: 285993 0.571986%
BRANCH_INDIRECT_CALL: 11392 0.022784%
BRANCH_RETURN: 297386 0.594772%
BRANCH_OTHER: 0 0%

