Initialize SIGNATURE TABLE
ST_SET: 1
ST_WAY: 256
ST_TAG_BIT: 16
ST_TAG_MASK: ffff

Initialize PATTERN TABLE
PT_SET: 512
PT_WAY: 4
SIG_DELTA_BIT: 7
C_SIG_BIT: 4
C_DELTA_BIT: 4

Initialize PREFETCH FILTER
FILTER_SET: 1024

*** ChampSim Multicore Out-of-Order Simulator ***

Warmup Instructions: 50000000
Simulation Instructions: 50000000
Number of CPUs: 1
LLC sets: 2048
LLC ways: 16
Off-chip DRAM Size: 4096 MB Channels: 1 Width: 64-bit Data Rate: 3200 MT/s

CPU 0 runs /home/jen/CompArch/ChampSim/dpc3_traces/603.bwaves_s-3699B.champsimtrace.xz
CPU 0 L1I next line prefetcher
CPU 0 L1D next line prefetcher
Heartbeat CPU 0 instructions: 10000000 cycles: 3420603 heartbeat IPC: 2.92346 cumulative IPC: 2.92346 (Simulation time: 0 hr 0 min 9 sec) 
Heartbeat CPU 0 instructions: 20000003 cycles: 6826761 heartbeat IPC: 2.93586 cumulative IPC: 2.92965 (Simulation time: 0 hr 0 min 19 sec) 
Heartbeat CPU 0 instructions: 30000002 cycles: 10233041 heartbeat IPC: 2.93575 cumulative IPC: 2.93168 (Simulation time: 0 hr 0 min 30 sec) 
Heartbeat CPU 0 instructions: 40000002 cycles: 13656374 heartbeat IPC: 2.92113 cumulative IPC: 2.92904 (Simulation time: 0 hr 0 min 39 sec) 
Heartbeat CPU 0 instructions: 50000003 cycles: 17076946 heartbeat IPC: 2.92349 cumulative IPC: 2.92792 (Simulation time: 0 hr 0 min 48 sec) 

Warmup complete CPU 0 instructions: 50000003 cycles: 17076946 (Simulation time: 0 hr 0 min 48 sec) 

Heartbeat CPU 0 instructions: 60000001 cycles: 23600941 heartbeat IPC: 1.5328 cumulative IPC: 1.5328 (Simulation time: 0 hr 0 min 56 sec) 
Heartbeat CPU 0 instructions: 70000001 cycles: 30122975 heartbeat IPC: 1.53326 cumulative IPC: 1.53303 (Simulation time: 0 hr 1 min 4 sec) 
Heartbeat CPU 0 instructions: 80000000 cycles: 36639440 heartbeat IPC: 1.53457 cumulative IPC: 1.53355 (Simulation time: 0 hr 1 min 12 sec) 
Heartbeat CPU 0 instructions: 90000003 cycles: 43157535 heartbeat IPC: 1.53419 cumulative IPC: 1.53371 (Simulation time: 0 hr 1 min 19 sec) 
Heartbeat CPU 0 instructions: 100000001 cycles: 49651996 heartbeat IPC: 1.53977 cumulative IPC: 1.53492 (Simulation time: 0 hr 1 min 27 sec) 
Finished CPU 0 instructions: 50000001 cycles: 32575051 cumulative IPC: 1.53492 (Simulation time: 0 hr 1 min 27 sec) 

ChampSim completed all CPUs

Region of Interest Statistics

CPU 0 cumulative IPC: 1.53492 instructions: 50000001 cycles: 32575051
L1D TOTAL     ACCESS:   16162791  HIT:   16160869  MISS:       1922
L1D LOAD      ACCESS:    7289137  HIT:    7289098  MISS:         39
L1D RFO       ACCESS:    1676895  HIT:    1675351  MISS:       1544
L1D PREFETCH  ACCESS:    7196759  HIT:    7196420  MISS:        339
L1D WRITEBACK ACCESS:          0  HIT:          0  MISS:          0
L1D PREFETCH  REQUESTED:    7289198  ISSUED:    7242778  USEFUL:        317  USELESS:         82
L1D AVERAGE MISS LATENCY: 172.532 cycles
L1I TOTAL     ACCESS:   10676494  HIT:   10676494  MISS:          0
L1I LOAD      ACCESS:   10676494  HIT:   10676494  MISS:          0
L1I RFO       ACCESS:          0  HIT:          0  MISS:          0
L1I PREFETCH  ACCESS:          0  HIT:          0  MISS:          0
L1I WRITEBACK ACCESS:          0  HIT:          0  MISS:          0
L1I PREFETCH  REQUESTED:          0  ISSUED:          0  USEFUL:          0  USELESS:          0
L1I AVERAGE MISS LATENCY: -nan cycles
L2C TOTAL     ACCESS:       3733  HIT:       1891  MISS:       1842
L2C LOAD      ACCESS:         39  HIT:         34  MISS:          5
L2C RFO       ACCESS:       1468  HIT:         12  MISS:       1456
L2C PREFETCH  ACCESS:        665  HIT:        284  MISS:        381
L2C WRITEBACK ACCESS:       1561  HIT:       1561  MISS:          0
L2C PREFETCH  REQUESTED:       2192  ISSUED:       2191  USEFUL:          1  USELESS:        474
L2C AVERAGE MISS LATENCY: 176.295 cycles
LLC TOTAL     ACCESS:       5272  HIT:       3424  MISS:       1848
LLC LOAD      ACCESS:          5  HIT:          0  MISS:          5
LLC RFO       ACCESS:       1453  HIT:         62  MISS:       1391
LLC PREFETCH  ACCESS:       2241  HIT:       1789  MISS:        452
LLC WRITEBACK ACCESS:       1573  HIT:       1573  MISS:          0
LLC PREFETCH  REQUESTED:          0  ISSUED:          0  USEFUL:         62  USELESS:        504
LLC AVERAGE MISS LATENCY: 184.457 cycles
Major fault: 0 Minor fault: 908
CPU 0 L1I next line prefetcher final stats
CPU 0 L1D next line prefetcher final stats

DRAM Statistics
 CHANNEL 0
 RQ ROW_BUFFER_HIT:        237  ROW_BUFFER_MISS:       1611
 DBUS_CONGESTED:       1277
 WQ ROW_BUFFER_HIT:        730  ROW_BUFFER_MISS:        807  FULL:          0

 AVG_CONGESTED_CYCLE: 6

CPU 0 Branch Prediction Accuracy: 99.9155% MPKI: 0.12258 Average ROB Occupancy at Mispredict: 89.4704

Branch types
NOT_BRANCH: 42745793 85.4916%
BRANCH_DIRECT_JUMP: 530397 1.06079%
BRANCH_INDIRECT: 43363 0.086726%
BRANCH_CONDITIONAL: 6567442 13.1349%
BRANCH_DIRECT_CALL: 56410 0.11282%
BRANCH_INDIRECT_CALL: 0 0%
BRANCH_RETURN: 56411 0.112822%
BRANCH_OTHER: 0 0%

