Initialize SIGNATURE TABLE
ST_SET: 1
ST_WAY: 256
ST_TAG_BIT: 16
ST_TAG_MASK: ffff

Initialize PATTERN TABLE
PT_SET: 512
PT_WAY: 4
SIG_DELTA_BIT: 7
C_SIG_BIT: 4
C_DELTA_BIT: 4

Initialize PREFETCH FILTER
FILTER_SET: 1024

*** ChampSim Multicore Out-of-Order Simulator ***

Warmup Instructions: 50000000
Simulation Instructions: 50000000
Number of CPUs: 1
LLC sets: 2048
LLC ways: 16
Off-chip DRAM Size: 4096 MB Channels: 1 Width: 64-bit Data Rate: 3200 MT/s

CPU 0 runs /home/jen/CompArch/ChampSim/dpc3_traces/605.mcf_s-665B.champsimtrace.xz
CPU 0 L1I next line prefetcher
CPU 0 L1D next line prefetcher
Heartbeat CPU 0 instructions: 10000000 cycles: 4106313 heartbeat IPC: 2.43527 cumulative IPC: 2.43527 (Simulation time: 0 hr 0 min 16 sec) 
Heartbeat CPU 0 instructions: 20000000 cycles: 8221204 heartbeat IPC: 2.4302 cumulative IPC: 2.43273 (Simulation time: 0 hr 0 min 32 sec) 
Heartbeat CPU 0 instructions: 30000002 cycles: 12321288 heartbeat IPC: 2.43897 cumulative IPC: 2.43481 (Simulation time: 0 hr 0 min 48 sec) 
Heartbeat CPU 0 instructions: 40000000 cycles: 16424847 heartbeat IPC: 2.43691 cumulative IPC: 2.43533 (Simulation time: 0 hr 1 min 4 sec) 
Heartbeat CPU 0 instructions: 50000000 cycles: 20523708 heartbeat IPC: 2.4397 cumulative IPC: 2.43621 (Simulation time: 0 hr 1 min 19 sec) 

Warmup complete CPU 0 instructions: 50000004 cycles: 20523709 (Simulation time: 0 hr 1 min 19 sec) 

Heartbeat CPU 0 instructions: 60000003 cycles: 44562112 heartbeat IPC: 0.416001 cumulative IPC: 0.416001 (Simulation time: 0 hr 1 min 33 sec) 
Heartbeat CPU 0 instructions: 70000003 cycles: 68335168 heartbeat IPC: 0.420644 cumulative IPC: 0.41831 (Simulation time: 0 hr 1 min 46 sec) 
Heartbeat CPU 0 instructions: 80000001 cycles: 92367394 heartbeat IPC: 0.416108 cumulative IPC: 0.417573 (Simulation time: 0 hr 2 min 0 sec) 
Heartbeat CPU 0 instructions: 90000001 cycles: 116777900 heartbeat IPC: 0.40966 cumulative IPC: 0.415566 (Simulation time: 0 hr 2 min 14 sec) 
Heartbeat CPU 0 instructions: 100000000 cycles: 139492359 heartbeat IPC: 0.440248 cumulative IPC: 0.420279 (Simulation time: 0 hr 2 min 26 sec) 
Finished CPU 0 instructions: 50000000 cycles: 118968651 cumulative IPC: 0.420279 (Simulation time: 0 hr 2 min 26 sec) 

ChampSim completed all CPUs

Region of Interest Statistics

CPU 0 cumulative IPC: 0.420279 instructions: 50000000 cycles: 118968651
L1D TOTAL     ACCESS:   30411943  HIT:   27229212  MISS:    3182731
L1D LOAD      ACCESS:   12756066  HIT:   11151233  MISS:    1604833
L1D RFO       ACCESS:    5404432  HIT:    5206473  MISS:     197959
L1D PREFETCH  ACCESS:   12251445  HIT:   10871506  MISS:    1379939
L1D WRITEBACK ACCESS:          0  HIT:          0  MISS:          0
L1D PREFETCH  REQUESTED:   12901382  ISSUED:   12788792  USEFUL:     246413  USELESS:    1133537
L1D AVERAGE MISS LATENCY: 67.7539 cycles
L1I TOTAL     ACCESS:    9392498  HIT:    9392498  MISS:          0
L1I LOAD      ACCESS:    9392498  HIT:    9392498  MISS:          0
L1I RFO       ACCESS:          0  HIT:          0  MISS:          0
L1I PREFETCH  ACCESS:          0  HIT:          0  MISS:          0
L1I WRITEBACK ACCESS:          0  HIT:          0  MISS:          0
L1I PREFETCH  REQUESTED:          0  ISSUED:          0  USEFUL:          0  USELESS:          0
L1I AVERAGE MISS LATENCY: -nan cycles
L2C TOTAL     ACCESS:    3906712  HIT:    1796532  MISS:    2110180
L2C LOAD      ACCESS:    1410330  HIT:     534902  MISS:     875428
L2C RFO       ACCESS:     197883  HIT:      76641  MISS:     121242
L2C PREFETCH  ACCESS:    2012945  HIT:     899740  MISS:    1113205
L2C WRITEBACK ACCESS:     285554  HIT:     285249  MISS:        305
L2C PREFETCH  REQUESTED:    2349089  ISSUED:    2349089  USEFUL:      91369  USELESS:    1021421
L2C AVERAGE MISS LATENCY: 91.8675 cycles
LLC TOTAL     ACCESS:    2939410  HIT:    1973541  MISS:     965869
LLC LOAD      ACCESS:     875407  HIT:     586777  MISS:     288630
LLC RFO       ACCESS:     121239  HIT:     117916  MISS:       3323
LLC PREFETCH  ACCESS:    1765320  HIT:    1092499  MISS:     672821
LLC WRITEBACK ACCESS:     177444  HIT:     176349  MISS:       1095
LLC PREFETCH  REQUESTED:          0  ISSUED:          0  USEFUL:     102645  USELESS:     569821
LLC AVERAGE MISS LATENCY: 188.584 cycles
Major fault: 0 Minor fault: 15068
CPU 0 L1I next line prefetcher final stats
CPU 0 L1D next line prefetcher final stats

DRAM Statistics
 CHANNEL 0
 RQ ROW_BUFFER_HIT:     136165  ROW_BUFFER_MISS:     828572
 DBUS_CONGESTED:     328707
 WQ ROW_BUFFER_HIT:       4876  ROW_BUFFER_MISS:      10317  FULL:          0

 AVG_CONGESTED_CYCLE: 5

CPU 0 Branch Prediction Accuracy: 93.133% MPKI: 17.08 Average ROB Occupancy at Mispredict: 26.6729

Branch types
NOT_BRANCH: 37563287 75.1266%
BRANCH_DIRECT_JUMP: 1317761 2.63552%
BRANCH_INDIRECT: 0 0%
BRANCH_CONDITIONAL: 8419917 16.8398%
BRANCH_DIRECT_CALL: 1274782 2.54956%
BRANCH_INDIRECT_CALL: 74550 0.1491%
BRANCH_RETURN: 1349334 2.69867%
BRANCH_OTHER: 0 0%

