Initialize SIGNATURE TABLE
ST_SET: 1
ST_WAY: 256
ST_TAG_BIT: 16
ST_TAG_MASK: ffff

Initialize PATTERN TABLE
PT_SET: 512
PT_WAY: 4
SIG_DELTA_BIT: 7
C_SIG_BIT: 4
C_DELTA_BIT: 4

Initialize PREFETCH FILTER
FILTER_SET: 1024

*** ChampSim Multicore Out-of-Order Simulator ***

Warmup Instructions: 50000000
Simulation Instructions: 50000000
Number of CPUs: 1
LLC sets: 2048
LLC ways: 16
Off-chip DRAM Size: 4096 MB Channels: 1 Width: 64-bit Data Rate: 3200 MT/s

CPU 0 runs /home/jen/CompArch/ChampSim/dpc3_traces/620.omnetpp_s-874B.champsimtrace.xz
CPU 0 L1I next line prefetcher
CPU 0 L1D next line prefetcher
Heartbeat CPU 0 instructions: 10000001 cycles: 5588376 heartbeat IPC: 1.78943 cumulative IPC: 1.78943 (Simulation time: 0 hr 0 min 17 sec) 
Heartbeat CPU 0 instructions: 20000001 cycles: 11176500 heartbeat IPC: 1.78951 cumulative IPC: 1.78947 (Simulation time: 0 hr 0 min 33 sec) 
Heartbeat CPU 0 instructions: 30000002 cycles: 16757323 heartbeat IPC: 1.79185 cumulative IPC: 1.79026 (Simulation time: 0 hr 0 min 50 sec) 
Heartbeat CPU 0 instructions: 40000000 cycles: 22353900 heartbeat IPC: 1.78681 cumulative IPC: 1.7894 (Simulation time: 0 hr 1 min 8 sec) 
Heartbeat CPU 0 instructions: 50000000 cycles: 27942853 heartbeat IPC: 1.78924 cumulative IPC: 1.78937 (Simulation time: 0 hr 1 min 25 sec) 

Warmup complete CPU 0 instructions: 50000001 cycles: 27942854 (Simulation time: 0 hr 1 min 25 sec) 

Heartbeat CPU 0 instructions: 60000001 cycles: 54344618 heartbeat IPC: 0.378763 cumulative IPC: 0.378763 (Simulation time: 0 hr 1 min 47 sec) 
Heartbeat CPU 0 instructions: 70000002 cycles: 80159971 heartbeat IPC: 0.387366 cumulative IPC: 0.383016 (Simulation time: 0 hr 2 min 8 sec) 
Heartbeat CPU 0 instructions: 80000002 cycles: 106418035 heartbeat IPC: 0.380835 cumulative IPC: 0.382286 (Simulation time: 0 hr 2 min 29 sec) 
Heartbeat CPU 0 instructions: 90000003 cycles: 132095723 heartbeat IPC: 0.389443 cumulative IPC: 0.384051 (Simulation time: 0 hr 2 min 51 sec) 
Heartbeat CPU 0 instructions: 100000000 cycles: 158665792 heartbeat IPC: 0.376363 cumulative IPC: 0.382488 (Simulation time: 0 hr 3 min 13 sec) 
Finished CPU 0 instructions: 50000000 cycles: 130722940 cumulative IPC: 0.382488 (Simulation time: 0 hr 3 min 13 sec) 

ChampSim completed all CPUs

Region of Interest Statistics

CPU 0 cumulative IPC: 0.382488 instructions: 50000000 cycles: 130722940
L1D TOTAL     ACCESS:   32213951  HIT:   30751815  MISS:    1462136
L1D LOAD      ACCESS:   11732663  HIT:   11006508  MISS:     726155
L1D RFO       ACCESS:    8992783  HIT:    8923297  MISS:      69486
L1D PREFETCH  ACCESS:   11488505  HIT:   10822010  MISS:     666495
L1D WRITEBACK ACCESS:          0  HIT:          0  MISS:          0
L1D PREFETCH  REQUESTED:   11768805  ISSUED:   11716912  USEFUL:     150595  USELESS:     515901
L1D AVERAGE MISS LATENCY: 117.071 cycles
L1I TOTAL     ACCESS:   11115204  HIT:   11082296  MISS:      32908
L1I LOAD      ACCESS:   11093763  HIT:   11070188  MISS:      23575
L1I RFO       ACCESS:          0  HIT:          0  MISS:          0
L1I PREFETCH  ACCESS:      21441  HIT:      12108  MISS:       9333
L1I WRITEBACK ACCESS:          0  HIT:          0  MISS:          0
L1I PREFETCH  REQUESTED:      33215  ISSUED:      33215  USEFUL:       2955  USELESS:       6388
L1I AVERAGE MISS LATENCY: 33.7637 cycles
L2C TOTAL     ACCESS:    2169183  HIT:    1203454  MISS:     965729
L2C LOAD      ACCESS:     736508  HIT:     276305  MISS:     460203
L2C RFO       ACCESS:      65024  HIT:      13983  MISS:      51041
L2C PREFETCH  ACCESS:     893884  HIT:     440246  MISS:     453638
L2C WRITEBACK ACCESS:     473767  HIT:     472920  MISS:        847
L2C PREFETCH  REQUESTED:    1447896  ISSUED:    1447896  USEFUL:      30045  USELESS:     423695
L2C AVERAGE MISS LATENCY: 147.921 cycles
LLC TOTAL     ACCESS:    1919377  HIT:     898215  MISS:    1021162
LLC LOAD      ACCESS:     460180  HIT:     159084  MISS:     301096
LLC RFO       ACCESS:      51041  HIT:      18662  MISS:      32379
LLC PREFETCH  ACCESS:    1077530  HIT:     396350  MISS:     681180
LLC WRITEBACK ACCESS:     330626  HIT:     324119  MISS:       6507
LLC PREFETCH  REQUESTED:          0  ISSUED:          0  USEFUL:      79583  USELESS:     601051
LLC AVERAGE MISS LATENCY: 175.416 cycles
Major fault: 0 Minor fault: 46163
CPU 0 L1I next line prefetcher final stats
CPU 0 L1D next line prefetcher final stats

DRAM Statistics
 CHANNEL 0
 RQ ROW_BUFFER_HIT:     102848  ROW_BUFFER_MISS:     911800
 DBUS_CONGESTED:     551700
 WQ ROW_BUFFER_HIT:      34669  ROW_BUFFER_MISS:     221704  FULL:          0

 AVG_CONGESTED_CYCLE: 4

CPU 0 Branch Prediction Accuracy: 98.2025% MPKI: 3.73946 Average ROB Occupancy at Mispredict: 94.1285

Branch types
NOT_BRANCH: 39597984 79.196%
BRANCH_DIRECT_JUMP: 567491 1.13498%
BRANCH_INDIRECT: 167850 0.3357%
BRANCH_CONDITIONAL: 6697264 13.3945%
BRANCH_DIRECT_CALL: 888054 1.77611%
BRANCH_INDIRECT_CALL: 596602 1.1932%
BRANCH_RETURN: 1484650 2.9693%
BRANCH_OTHER: 0 0%

