Initialize SIGNATURE TABLE
ST_SET: 1
ST_WAY: 256
ST_TAG_BIT: 16
ST_TAG_MASK: ffff

Initialize PATTERN TABLE
PT_SET: 512
PT_WAY: 4
SIG_DELTA_BIT: 7
C_SIG_BIT: 4
C_DELTA_BIT: 4

Initialize PREFETCH FILTER
FILTER_SET: 1024

*** ChampSim Multicore Out-of-Order Simulator ***

Warmup Instructions: 50000000
Simulation Instructions: 50000000
Number of CPUs: 1
LLC sets: 2048
LLC ways: 16
Off-chip DRAM Size: 4096 MB Channels: 1 Width: 64-bit Data Rate: 3200 MT/s

CPU 0 runs /home/jen/CompArch/ChampSim/dpc3_traces/621.wrf_s-575B.champsimtrace.xz
CPU 0 L1I next line prefetcher
CPU 0 L1D next line prefetcher
Heartbeat CPU 0 instructions: 10000000 cycles: 4328660 heartbeat IPC: 2.31018 cumulative IPC: 2.31018 (Simulation time: 0 hr 0 min 12 sec) 
Heartbeat CPU 0 instructions: 20000002 cycles: 8673313 heartbeat IPC: 2.30168 cumulative IPC: 2.30592 (Simulation time: 0 hr 0 min 25 sec) 
Heartbeat CPU 0 instructions: 30000000 cycles: 13029335 heartbeat IPC: 2.29567 cumulative IPC: 2.3025 (Simulation time: 0 hr 0 min 38 sec) 
Heartbeat CPU 0 instructions: 40000002 cycles: 17381179 heartbeat IPC: 2.29788 cumulative IPC: 2.30134 (Simulation time: 0 hr 0 min 51 sec) 
Heartbeat CPU 0 instructions: 50000002 cycles: 21730893 heartbeat IPC: 2.299 cumulative IPC: 2.30087 (Simulation time: 0 hr 1 min 5 sec) 

Warmup complete CPU 0 instructions: 50000002 cycles: 21730893 (Simulation time: 0 hr 1 min 5 sec) 

Heartbeat CPU 0 instructions: 60000003 cycles: 30397815 heartbeat IPC: 1.15381 cumulative IPC: 1.15381 (Simulation time: 0 hr 1 min 20 sec) 
Heartbeat CPU 0 instructions: 70000000 cycles: 39038275 heartbeat IPC: 1.15735 cumulative IPC: 1.15558 (Simulation time: 0 hr 1 min 35 sec) 
Heartbeat CPU 0 instructions: 80000000 cycles: 47625337 heartbeat IPC: 1.16454 cumulative IPC: 1.15855 (Simulation time: 0 hr 1 min 49 sec) 
Heartbeat CPU 0 instructions: 90000000 cycles: 56268436 heartbeat IPC: 1.15699 cumulative IPC: 1.15816 (Simulation time: 0 hr 2 min 4 sec) 
Heartbeat CPU 0 instructions: 100000001 cycles: 64878860 heartbeat IPC: 1.16138 cumulative IPC: 1.1588 (Simulation time: 0 hr 2 min 19 sec) 
Finished CPU 0 instructions: 50000000 cycles: 43147974 cumulative IPC: 1.1588 (Simulation time: 0 hr 2 min 19 sec) 

ChampSim completed all CPUs

Region of Interest Statistics

CPU 0 cumulative IPC: 1.1588 instructions: 50000000 cycles: 43147974
L1D TOTAL     ACCESS:   15293665  HIT:   15292116  MISS:       1549
L1D LOAD      ACCESS:    6687095  HIT:    6686807  MISS:        288
L1D RFO       ACCESS:    1925600  HIT:    1924845  MISS:        755
L1D PREFETCH  ACCESS:    6680970  HIT:    6680464  MISS:        506
L1D WRITEBACK ACCESS:          0  HIT:          0  MISS:          0
L1D PREFETCH  REQUESTED:    6687175  ISSUED:    6682389  USEFUL:        423  USELESS:         80
L1D AVERAGE MISS LATENCY: 133.076 cycles
L1I TOTAL     ACCESS:   10572562  HIT:   10571977  MISS:        585
L1I LOAD      ACCESS:   10572260  HIT:   10571868  MISS:        392
L1I RFO       ACCESS:          0  HIT:          0  MISS:          0
L1I PREFETCH  ACCESS:        302  HIT:        109  MISS:        193
L1I WRITEBACK ACCESS:          0  HIT:          0  MISS:          0
L1I PREFETCH  REQUESTED:        498  ISSUED:        498  USEFUL:        145  USELESS:         47
L1I AVERAGE MISS LATENCY: 13.5487 cycles
L2C TOTAL     ACCESS:       3916  HIT:       2442  MISS:       1474
L2C LOAD      ACCESS:        567  HIT:        405  MISS:        162
L2C RFO       ACCESS:        755  HIT:         25  MISS:        730
L2C PREFETCH  ACCESS:       1546  HIT:        964  MISS:        582
L2C WRITEBACK ACCESS:       1048  HIT:       1048  MISS:          0
L2C PREFETCH  REQUESTED:       3787  ISSUED:       3787  USEFUL:         26  USELESS:          0
L2C AVERAGE MISS LATENCY: 137.154 cycles
LLC TOTAL     ACCESS:       3339  HIT:       1712  MISS:       1627
LLC LOAD      ACCESS:        160  HIT:         44  MISS:        116
LLC RFO       ACCESS:        730  HIT:         21  MISS:        709
LLC PREFETCH  ACCESS:       2449  HIT:       1647  MISS:        802
LLC WRITEBACK ACCESS:          0  HIT:          0  MISS:          0
LLC PREFETCH  REQUESTED:          0  ISSUED:          0  USEFUL:         65  USELESS:          0
LLC AVERAGE MISS LATENCY: 155.458 cycles
Major fault: 0 Minor fault: 197
CPU 0 L1I next line prefetcher final stats
CPU 0 L1D next line prefetcher final stats

DRAM Statistics
 CHANNEL 0
 RQ ROW_BUFFER_HIT:        501  ROW_BUFFER_MISS:       1126
 DBUS_CONGESTED:        628
 WQ ROW_BUFFER_HIT:          0  ROW_BUFFER_MISS:          0  FULL:          0

 AVG_CONGESTED_CYCLE: 6

CPU 0 Branch Prediction Accuracy: 99.6866% MPKI: 0.41812 Average ROB Occupancy at Mispredict: 263.267

Branch types
NOT_BRANCH: 43328386 86.6568%
BRANCH_DIRECT_JUMP: 484649 0.969298%
BRANCH_INDIRECT: 0 0%
BRANCH_CONDITIONAL: 5043854 10.0877%
BRANCH_DIRECT_CALL: 571556 1.14311%
BRANCH_INDIRECT_CALL: 0 0%
BRANCH_RETURN: 571556 1.14311%
BRANCH_OTHER: 0 0%

