Initialize SIGNATURE TABLE
ST_SET: 1
ST_WAY: 256
ST_TAG_BIT: 16
ST_TAG_MASK: ffff

Initialize PATTERN TABLE
PT_SET: 512
PT_WAY: 4
SIG_DELTA_BIT: 7
C_SIG_BIT: 4
C_DELTA_BIT: 4

Initialize PREFETCH FILTER
FILTER_SET: 1024

*** ChampSim Multicore Out-of-Order Simulator ***

Warmup Instructions: 50000000
Simulation Instructions: 50000000
Number of CPUs: 1
LLC sets: 2048
LLC ways: 16
Off-chip DRAM Size: 4096 MB Channels: 1 Width: 64-bit Data Rate: 3200 MT/s

CPU 0 runs /home/jen/CompArch/ChampSim/dpc3_traces/623.xalancbmk_s-700B.champsimtrace.xz
CPU 0 L1I next line prefetcher
CPU 0 L1D next line prefetcher
Heartbeat CPU 0 instructions: 10000002 cycles: 5015433 heartbeat IPC: 1.99385 cumulative IPC: 1.99385 (Simulation time: 0 hr 0 min 16 sec) 
Heartbeat CPU 0 instructions: 20000001 cycles: 9399904 heartbeat IPC: 2.28078 cumulative IPC: 2.12768 (Simulation time: 0 hr 0 min 30 sec) 
Heartbeat CPU 0 instructions: 30000000 cycles: 14464375 heartbeat IPC: 1.97454 cumulative IPC: 2.07406 (Simulation time: 0 hr 0 min 47 sec) 
Heartbeat CPU 0 instructions: 40000002 cycles: 19698501 heartbeat IPC: 1.91054 cumulative IPC: 2.03061 (Simulation time: 0 hr 1 min 4 sec) 
Heartbeat CPU 0 instructions: 50000002 cycles: 24835763 heartbeat IPC: 1.94656 cumulative IPC: 2.01323 (Simulation time: 0 hr 1 min 20 sec) 

Warmup complete CPU 0 instructions: 50000002 cycles: 24835763 (Simulation time: 0 hr 1 min 20 sec) 

Heartbeat CPU 0 instructions: 60000003 cycles: 36199291 heartbeat IPC: 0.880008 cumulative IPC: 0.880008 (Simulation time: 0 hr 1 min 33 sec) 
Heartbeat CPU 0 instructions: 70000002 cycles: 50743897 heartbeat IPC: 0.68754 cumulative IPC: 0.771958 (Simulation time: 0 hr 1 min 49 sec) 
Heartbeat CPU 0 instructions: 80000000 cycles: 70224549 heartbeat IPC: 0.51333 cumulative IPC: 0.660956 (Simulation time: 0 hr 2 min 7 sec) 
Heartbeat CPU 0 instructions: 90000000 cycles: 86848250 heartbeat IPC: 0.601551 cumulative IPC: 0.645031 (Simulation time: 0 hr 2 min 25 sec) 
Heartbeat CPU 0 instructions: 100000001 cycles: 105840837 heartbeat IPC: 0.526521 cumulative IPC: 0.617245 (Simulation time: 0 hr 2 min 45 sec) 
Finished CPU 0 instructions: 50000001 cycles: 81005076 cumulative IPC: 0.617245 (Simulation time: 0 hr 2 min 45 sec) 

ChampSim completed all CPUs

Region of Interest Statistics

CPU 0 cumulative IPC: 0.617245 instructions: 50000001 cycles: 81005076
L1D TOTAL     ACCESS:   18925132  HIT:   14762039  MISS:    4163093
L1D LOAD      ACCESS:    8320379  HIT:    5946105  MISS:    2374274
L1D RFO       ACCESS:    3134533  HIT:    3102717  MISS:      31816
L1D PREFETCH  ACCESS:    7470220  HIT:    5713217  MISS:    1757003
L1D WRITEBACK ACCESS:          0  HIT:          0  MISS:          0
L1D PREFETCH  REQUESTED:    8404125  ISSUED:    8236681  USEFUL:     395233  USELESS:    1361659
L1D AVERAGE MISS LATENCY: 21.0053 cycles
L1I TOTAL     ACCESS:   13019032  HIT:   12828327  MISS:     190705
L1I LOAD      ACCESS:   12888744  HIT:   12765318  MISS:     123426
L1I RFO       ACCESS:          0  HIT:          0  MISS:          0
L1I PREFETCH  ACCESS:     130288  HIT:      63009  MISS:      67279
L1I WRITEBACK ACCESS:          0  HIT:          0  MISS:          0
L1I PREFETCH  REQUESTED:     185962  ISSUED:     185962  USEFUL:      36948  USELESS:      30326
L1I AVERAGE MISS LATENCY: 17.1801 cycles
L2C TOTAL     ACCESS:    6538173  HIT:    6072427  MISS:     465746
L2C LOAD      ACCESS:    2386541  HIT:    2138776  MISS:     247765
L2C RFO       ACCESS:      31580  HIT:       9120  MISS:      22460
L2C PREFETCH  ACCESS:    4034335  HIT:    3838815  MISS:     195520
L2C WRITEBACK ACCESS:      85717  HIT:      85716  MISS:          1
L2C PREFETCH  REQUESTED:    6902842  ISSUED:    6902438  USEFUL:       9019  USELESS:     186786
L2C AVERAGE MISS LATENCY: 46.6427 cycles
LLC TOTAL     ACCESS:    2436680  HIT:    2363738  MISS:      72942
LLC LOAD      ACCESS:     247510  HIT:     233355  MISS:      14155
LLC RFO       ACCESS:      22459  HIT:      10582  MISS:      11877
LLC PREFETCH  ACCESS:    2116701  HIT:    2070906  MISS:      45795
LLC WRITEBACK ACCESS:      50010  HIT:      48895  MISS:       1115
LLC PREFETCH  REQUESTED:          0  ISSUED:          0  USEFUL:       7727  USELESS:      33601
LLC AVERAGE MISS LATENCY: 167.096 cycles
Major fault: 0 Minor fault: 3572
CPU 0 L1I next line prefetcher final stats
CPU 0 L1D next line prefetcher final stats

DRAM Statistics
 CHANNEL 0
 RQ ROW_BUFFER_HIT:      11751  ROW_BUFFER_MISS:      60074
 DBUS_CONGESTED:      37657
 WQ ROW_BUFFER_HIT:       4965  ROW_BUFFER_MISS:      31268  FULL:          0

 AVG_CONGESTED_CYCLE: 5

CPU 0 Branch Prediction Accuracy: 99.7227% MPKI: 0.78238 Average ROB Occupancy at Mispredict: 144.961

Branch types
NOT_BRANCH: 35891713 71.7834%
BRANCH_DIRECT_JUMP: 408140 0.81628%
BRANCH_INDIRECT: 152644 0.305288%
BRANCH_CONDITIONAL: 12052504 24.105%
BRANCH_DIRECT_CALL: 454801 0.909602%
BRANCH_INDIRECT_CALL: 292700 0.5854%
BRANCH_RETURN: 747496 1.49499%
BRANCH_OTHER: 0 0%

