Initialize SIGNATURE TABLE
ST_SET: 1
ST_WAY: 256
ST_TAG_BIT: 16
ST_TAG_MASK: ffff

Initialize PATTERN TABLE
PT_SET: 512
PT_WAY: 4
SIG_DELTA_BIT: 7
C_SIG_BIT: 4
C_DELTA_BIT: 4

Initialize PREFETCH FILTER
FILTER_SET: 1024

*** ChampSim Multicore Out-of-Order Simulator ***

Warmup Instructions: 50000000
Simulation Instructions: 50000000
Number of CPUs: 1
LLC sets: 2048
LLC ways: 16
Off-chip DRAM Size: 4096 MB Channels: 1 Width: 64-bit Data Rate: 3200 MT/s

CPU 0 runs /home/jen/CompArch/ChampSim/dpc3_traces/625.x264_s-18B.champsimtrace.xz
CPU 0 L1I next line prefetcher
CPU 0 L1D next line prefetcher
Heartbeat CPU 0 instructions: 10000001 cycles: 3382990 heartbeat IPC: 2.95597 cumulative IPC: 2.95597 (Simulation time: 0 hr 0 min 12 sec) 
Heartbeat CPU 0 instructions: 20000000 cycles: 6779364 heartbeat IPC: 2.94432 cumulative IPC: 2.95013 (Simulation time: 0 hr 0 min 23 sec) 
Heartbeat CPU 0 instructions: 30000000 cycles: 10161207 heartbeat IPC: 2.95697 cumulative IPC: 2.95241 (Simulation time: 0 hr 0 min 35 sec) 
Heartbeat CPU 0 instructions: 40000002 cycles: 13534735 heartbeat IPC: 2.96426 cumulative IPC: 2.95536 (Simulation time: 0 hr 0 min 47 sec) 
Heartbeat CPU 0 instructions: 50000003 cycles: 16903081 heartbeat IPC: 2.96882 cumulative IPC: 2.95804 (Simulation time: 0 hr 0 min 58 sec) 

Warmup complete CPU 0 instructions: 50000003 cycles: 16903081 (Simulation time: 0 hr 0 min 58 sec) 

Heartbeat CPU 0 instructions: 60000001 cycles: 22510947 heartbeat IPC: 1.78321 cumulative IPC: 1.78321 (Simulation time: 0 hr 1 min 7 sec) 
Heartbeat CPU 0 instructions: 70000000 cycles: 28134983 heartbeat IPC: 1.77808 cumulative IPC: 1.78064 (Simulation time: 0 hr 1 min 15 sec) 
Heartbeat CPU 0 instructions: 80000000 cycles: 33764784 heartbeat IPC: 1.77626 cumulative IPC: 1.77918 (Simulation time: 0 hr 1 min 23 sec) 
Heartbeat CPU 0 instructions: 90000002 cycles: 39402658 heartbeat IPC: 1.77372 cumulative IPC: 1.77781 (Simulation time: 0 hr 1 min 32 sec) 
Heartbeat CPU 0 instructions: 100000001 cycles: 45037004 heartbeat IPC: 1.77483 cumulative IPC: 1.77721 (Simulation time: 0 hr 1 min 40 sec) 
Finished CPU 0 instructions: 50000002 cycles: 28133924 cumulative IPC: 1.77721 (Simulation time: 0 hr 1 min 40 sec) 

ChampSim completed all CPUs

Region of Interest Statistics

CPU 0 cumulative IPC: 1.77721 instructions: 50000002 cycles: 28133924
L1D TOTAL     ACCESS:   10999080  HIT:   10981262  MISS:      17818
L1D LOAD      ACCESS:    3913897  HIT:    3898495  MISS:      15402
L1D RFO       ACCESS:    3265011  HIT:    3264524  MISS:        487
L1D PREFETCH  ACCESS:    3820172  HIT:    3818243  MISS:       1929
L1D WRITEBACK ACCESS:          0  HIT:          0  MISS:          0
L1D PREFETCH  REQUESTED:    3918316  ISSUED:    3827406  USEFUL:        317  USELESS:       1618
L1D AVERAGE MISS LATENCY: 84.5525 cycles
L1I TOTAL     ACCESS:    8054793  HIT:    8054793  MISS:          0
L1I LOAD      ACCESS:    8054793  HIT:    8054793  MISS:          0
L1I RFO       ACCESS:          0  HIT:          0  MISS:          0
L1I PREFETCH  ACCESS:          0  HIT:          0  MISS:          0
L1I WRITEBACK ACCESS:          0  HIT:          0  MISS:          0
L1I PREFETCH  REQUESTED:          0  ISSUED:          0  USEFUL:          0  USELESS:          0
L1I AVERAGE MISS LATENCY: -nan cycles
L2C TOTAL     ACCESS:      28890  HIT:      13759  MISS:      15131
L2C LOAD      ACCESS:      15381  HIT:       3491  MISS:      11890
L2C RFO       ACCESS:        486  HIT:         28  MISS:        458
L2C PREFETCH  ACCESS:      12539  HIT:       9758  MISS:       2781
L2C WRITEBACK ACCESS:        484  HIT:        482  MISS:          2
L2C PREFETCH  REQUESTED:      43943  ISSUED:      43872  USEFUL:       1860  USELESS:        946
L2C AVERAGE MISS LATENCY: 87.0841 cycles
LLC TOTAL     ACCESS:      31016  HIT:      16303  MISS:      14713
LLC LOAD      ACCESS:      10304  HIT:       5778  MISS:       4526
LLC RFO       ACCESS:        458  HIT:         29  MISS:        429
LLC PREFETCH  ACCESS:      19781  HIT:      10023  MISS:       9758
LLC WRITEBACK ACCESS:        473  HIT:        473  MISS:          0
LLC PREFETCH  REQUESTED:          0  ISSUED:          0  USEFUL:       5409  USELESS:        673
LLC AVERAGE MISS LATENCY: 131.672 cycles
Major fault: 0 Minor fault: 671
CPU 0 L1I next line prefetcher final stats
CPU 0 L1D next line prefetcher final stats

DRAM Statistics
 CHANNEL 0
 RQ ROW_BUFFER_HIT:       7480  ROW_BUFFER_MISS:       7233
 DBUS_CONGESTED:       5298
 WQ ROW_BUFFER_HIT:         13  ROW_BUFFER_MISS:         49  FULL:          0

 AVG_CONGESTED_CYCLE: 6

CPU 0 Branch Prediction Accuracy: 99.695% MPKI: 0.12886 Average ROB Occupancy at Mispredict: 60.7133

Branch types
NOT_BRANCH: 47887571 95.7751%
BRANCH_DIRECT_JUMP: 36263 0.072526%
BRANCH_INDIRECT: 3236 0.006472%
BRANCH_CONDITIONAL: 1791513 3.58303%
BRANCH_DIRECT_CALL: 71355 0.14271%
BRANCH_INDIRECT_CALL: 69258 0.138516%
BRANCH_RETURN: 140613 0.281226%
BRANCH_OTHER: 0 0%

