Initialize SIGNATURE TABLE
ST_SET: 1
ST_WAY: 256
ST_TAG_BIT: 16
ST_TAG_MASK: ffff

Initialize PATTERN TABLE
PT_SET: 512
PT_WAY: 4
SIG_DELTA_BIT: 7
C_SIG_BIT: 4
C_DELTA_BIT: 4

Initialize PREFETCH FILTER
FILTER_SET: 1024

*** ChampSim Multicore Out-of-Order Simulator ***

Warmup Instructions: 50000000
Simulation Instructions: 50000000
Number of CPUs: 1
LLC sets: 2048
LLC ways: 16
Off-chip DRAM Size: 4096 MB Channels: 1 Width: 64-bit Data Rate: 3200 MT/s

CPU 0 runs /home/jen/CompArch/ChampSim/dpc3_traces/641.leela_s-800B.champsimtrace.xz
CPU 0 L1I next line prefetcher
CPU 0 L1D next line prefetcher
Heartbeat CPU 0 instructions: 10000003 cycles: 4646112 heartbeat IPC: 2.15234 cumulative IPC: 2.15234 (Simulation time: 0 hr 0 min 14 sec) 
Heartbeat CPU 0 instructions: 20000003 cycles: 9289256 heartbeat IPC: 2.15371 cumulative IPC: 2.15303 (Simulation time: 0 hr 0 min 29 sec) 
Heartbeat CPU 0 instructions: 30000001 cycles: 13951242 heartbeat IPC: 2.14501 cumulative IPC: 2.15035 (Simulation time: 0 hr 0 min 43 sec) 
Heartbeat CPU 0 instructions: 40000002 cycles: 18599704 heartbeat IPC: 2.15125 cumulative IPC: 2.15057 (Simulation time: 0 hr 0 min 59 sec) 
Heartbeat CPU 0 instructions: 50000001 cycles: 23243254 heartbeat IPC: 2.15352 cumulative IPC: 2.15116 (Simulation time: 0 hr 1 min 14 sec) 

Warmup complete CPU 0 instructions: 50000001 cycles: 23243254 (Simulation time: 0 hr 1 min 14 sec) 

Heartbeat CPU 0 instructions: 60000000 cycles: 34795513 heartbeat IPC: 0.865631 cumulative IPC: 0.865631 (Simulation time: 0 hr 1 min 25 sec) 
Heartbeat CPU 0 instructions: 70000001 cycles: 46321724 heartbeat IPC: 0.867588 cumulative IPC: 0.866609 (Simulation time: 0 hr 1 min 36 sec) 
Heartbeat CPU 0 instructions: 80000001 cycles: 57838734 heartbeat IPC: 0.868281 cumulative IPC: 0.867165 (Simulation time: 0 hr 1 min 47 sec) 
Heartbeat CPU 0 instructions: 90000003 cycles: 69304752 heartbeat IPC: 0.872143 cumulative IPC: 0.868404 (Simulation time: 0 hr 1 min 58 sec) 
Heartbeat CPU 0 instructions: 100000002 cycles: 80778752 heartbeat IPC: 0.871536 cumulative IPC: 0.869029 (Simulation time: 0 hr 2 min 9 sec) 
Finished CPU 0 instructions: 50000001 cycles: 57535498 cumulative IPC: 0.869029 (Simulation time: 0 hr 2 min 9 sec) 

ChampSim completed all CPUs

Region of Interest Statistics

CPU 0 cumulative IPC: 0.869029 instructions: 50000001 cycles: 57535498
L1D TOTAL     ACCESS:   25021738  HIT:   24869433  MISS:     152305
L1D LOAD      ACCESS:    9726768  HIT:    9637460  MISS:      89308
L1D RFO       ACCESS:    5717249  HIT:    5708149  MISS:       9100
L1D PREFETCH  ACCESS:    9577721  HIT:    9523824  MISS:      53897
L1D WRITEBACK ACCESS:          0  HIT:          0  MISS:          0
L1D PREFETCH  REQUESTED:    9730485  ISSUED:    9604017  USEFUL:      17622  USELESS:      36224
L1D AVERAGE MISS LATENCY: 15.7524 cycles
L1I TOTAL     ACCESS:    8979840  HIT:    8975501  MISS:       4339
L1I LOAD      ACCESS:    8977462  HIT:    8974718  MISS:       2744
L1I RFO       ACCESS:          0  HIT:          0  MISS:          0
L1I PREFETCH  ACCESS:       2378  HIT:        783  MISS:       1595
L1I WRITEBACK ACCESS:          0  HIT:          0  MISS:          0
L1I PREFETCH  REQUESTED:       3626  ISSUED:       3626  USEFUL:       1011  USELESS:        587
L1I AVERAGE MISS LATENCY: 16.5589 cycles
L2C TOTAL     ACCESS:     289792  HIT:     288072  MISS:       1720
L2C LOAD      ACCESS:      91560  HIT:      90827  MISS:        733
L2C RFO       ACCESS:       9005  HIT:       8964  MISS:         41
L2C PREFETCH  ACCESS:     169408  HIT:     168462  MISS:        946
L2C WRITEBACK ACCESS:      19819  HIT:      19819  MISS:          0
L2C PREFETCH  REQUESTED:     180226  ISSUED:     180042  USEFUL:        495  USELESS:        369
L2C AVERAGE MISS LATENCY: 79.4192 cycles
LLC TOTAL     ACCESS:      30931  HIT:      29555  MISS:       1376
LLC LOAD      ACCESS:        709  HIT:        479  MISS:        230
LLC RFO       ACCESS:         41  HIT:          4  MISS:         37
LLC PREFETCH  ACCESS:      30059  HIT:      28950  MISS:       1109
LLC WRITEBACK ACCESS:        122  HIT:        122  MISS:          0
LLC PREFETCH  REQUESTED:          0  ISSUED:          0  USEFUL:        128  USELESS:          0
LLC AVERAGE MISS LATENCY: 155.759 cycles
Major fault: 0 Minor fault: 491
CPU 0 L1I next line prefetcher final stats
CPU 0 L1D next line prefetcher final stats

DRAM Statistics
 CHANNEL 0
 RQ ROW_BUFFER_HIT:        281  ROW_BUFFER_MISS:       1095
 DBUS_CONGESTED:        405
 WQ ROW_BUFFER_HIT:          0  ROW_BUFFER_MISS:          0  FULL:          0

 AVG_CONGESTED_CYCLE: 4

CPU 0 Branch Prediction Accuracy: 93.0243% MPKI: 11.3959 Average ROB Occupancy at Mispredict: 42.4443

Branch types
NOT_BRANCH: 41831381 83.6628%
BRANCH_DIRECT_JUMP: 271721 0.543442%
BRANCH_INDIRECT: 310 0.00062%
BRANCH_CONDITIONAL: 4950159 9.90032%
BRANCH_DIRECT_CALL: 1473055 2.94611%
BRANCH_INDIRECT_CALL: 0 0%
BRANCH_RETURN: 1473053 2.94611%
BRANCH_OTHER: 0 0%

