Initialize SIGNATURE TABLE
ST_SET: 1
ST_WAY: 256
ST_TAG_BIT: 16
ST_TAG_MASK: ffff

Initialize PATTERN TABLE
PT_SET: 512
PT_WAY: 4
SIG_DELTA_BIT: 7
C_SIG_BIT: 4
C_DELTA_BIT: 4

Initialize PREFETCH FILTER
FILTER_SET: 1024

*** ChampSim Multicore Out-of-Order Simulator ***

Warmup Instructions: 50000000
Simulation Instructions: 50000000
Number of CPUs: 1
LLC sets: 2048
LLC ways: 16
Off-chip DRAM Size: 4096 MB Channels: 1 Width: 64-bit Data Rate: 3200 MT/s

CPU 0 runs /home/jen/CompArch/ChampSim/server_031.champsimtrace.xz
CPU 0 L1I next line prefetcher
CPU 0 L1D next line prefetcher
Heartbeat CPU 0 instructions: 10000003 cycles: 3521934 heartbeat IPC: 2.83935 cumulative IPC: 2.83935 (Simulation time: 0 hr 0 min 17 sec) 
Heartbeat CPU 0 instructions: 20000002 cycles: 7042258 heartbeat IPC: 2.84065 cumulative IPC: 2.84 (Simulation time: 0 hr 0 min 34 sec) 
Heartbeat CPU 0 instructions: 30000002 cycles: 10563078 heartbeat IPC: 2.84025 cumulative IPC: 2.84008 (Simulation time: 0 hr 0 min 52 sec) 
Heartbeat CPU 0 instructions: 40000003 cycles: 14079716 heartbeat IPC: 2.84363 cumulative IPC: 2.84097 (Simulation time: 0 hr 1 min 10 sec) 
Heartbeat CPU 0 instructions: 50000001 cycles: 17599166 heartbeat IPC: 2.84135 cumulative IPC: 2.84104 (Simulation time: 0 hr 1 min 27 sec) 

Warmup complete CPU 0 instructions: 50000001 cycles: 17599166 (Simulation time: 0 hr 1 min 27 sec) 

Heartbeat CPU 0 instructions: 60000001 cycles: 28088249 heartbeat IPC: 0.953372 cumulative IPC: 0.953372 (Simulation time: 0 hr 1 min 42 sec) 
Heartbeat CPU 0 instructions: 70000002 cycles: 38619873 heartbeat IPC: 0.949521 cumulative IPC: 0.951443 (Simulation time: 0 hr 1 min 56 sec) 
*** Reached end of trace for Core: 0 Repeating trace: /home/jen/CompArch/ChampSim/server_031.champsimtrace.xz
Heartbeat CPU 0 instructions: 80000000 cycles: 48981454 heartbeat IPC: 0.965104 cumulative IPC: 0.955953 (Simulation time: 0 hr 2 min 11 sec) 
Heartbeat CPU 0 instructions: 90000001 cycles: 59408080 heartbeat IPC: 0.959083 cumulative IPC: 0.956734 (Simulation time: 0 hr 2 min 26 sec) 
Heartbeat CPU 0 instructions: 100000000 cycles: 69789957 heartbeat IPC: 0.963217 cumulative IPC: 0.958023 (Simulation time: 0 hr 2 min 41 sec) 
Finished CPU 0 instructions: 50000000 cycles: 52190793 cumulative IPC: 0.958023 (Simulation time: 0 hr 2 min 41 sec) 

ChampSim completed all CPUs

Region of Interest Statistics

CPU 0 cumulative IPC: 0.958023 instructions: 50000000 cycles: 52190793
L1D TOTAL     ACCESS:   21666266  HIT:   19759104  MISS:    1907162
L1D LOAD      ACCESS:    7784419  HIT:    6924760  MISS:     859659
L1D RFO       ACCESS:    6400719  HIT:    6108420  MISS:     292299
L1D PREFETCH  ACCESS:    7481128  HIT:    6725924  MISS:     755204
L1D WRITEBACK ACCESS:          0  HIT:          0  MISS:          0
L1D PREFETCH  REQUESTED:    7852294  ISSUED:    7768081  USEFUL:     187566  USELESS:     567642
L1D AVERAGE MISS LATENCY: 23.6892 cycles
L1I TOTAL     ACCESS:   11015218  HIT:    7280766  MISS:    3734452
L1I LOAD      ACCESS:    9449911  HIT:    7088569  MISS:    2361342
L1I RFO       ACCESS:          0  HIT:          0  MISS:          0
L1I PREFETCH  ACCESS:    1565307  HIT:     192197  MISS:    1373110
L1I WRITEBACK ACCESS:          0  HIT:          0  MISS:          0
L1I PREFETCH  REQUESTED:    2759797  ISSUED:    2759797  USEFUL:     708032  USELESS:     665073
L1I AVERAGE MISS LATENCY: 17.2895 cycles
L2C TOTAL     ACCESS:    8450812  HIT:    7477141  MISS:     973671
L2C LOAD      ACCESS:    2897399  HIT:    2448111  MISS:     449288
L2C RFO       ACCESS:     290218  HIT:     218943  MISS:      71275
L2C PREFETCH  ACCESS:    4646490  HIT:    4196045  MISS:     450445
L2C WRITEBACK ACCESS:     616705  HIT:     614042  MISS:       2663
L2C PREFETCH  REQUESTED:    6757383  ISSUED:    6755220  USEFUL:      26672  USELESS:     423786
L2C AVERAGE MISS LATENCY: 39.9276 cycles
LLC TOTAL     ACCESS:    2632813  HIT:    2557068  MISS:      75745
LLC LOAD      ACCESS:     449249  HIT:     429811  MISS:      19438
LLC RFO       ACCESS:      71275  HIT:      67089  MISS:       4186
LLC PREFETCH  ACCESS:    1981778  HIT:    1930116  MISS:      51662
LLC WRITEBACK ACCESS:     130511  HIT:     130052  MISS:        459
LLC PREFETCH  REQUESTED:          0  ISSUED:          0  USEFUL:       2814  USELESS:      48840
LLC AVERAGE MISS LATENCY: 157.925 cycles
Major fault: 0 Minor fault: 6048
CPU 0 L1I next line prefetcher final stats
CPU 0 L1D next line prefetcher final stats

DRAM Statistics
 CHANNEL 0
 RQ ROW_BUFFER_HIT:      21057  ROW_BUFFER_MISS:      54222
 DBUS_CONGESTED:      32575
 WQ ROW_BUFFER_HIT:        694  ROW_BUFFER_MISS:       5122  FULL:          0

 AVG_CONGESTED_CYCLE: 4

CPU 0 Branch Prediction Accuracy: 99.6894% MPKI: 0.58048 Average ROB Occupancy at Mispredict: 106.2

Branch types
NOT_BRANCH: 40655564 81.3111%
BRANCH_DIRECT_JUMP: 546484 1.09297%
BRANCH_INDIRECT: 172433 0.344866%
BRANCH_CONDITIONAL: 6207563 12.4151%
BRANCH_DIRECT_CALL: 1018498 2.037%
BRANCH_INDIRECT_CALL: 190373 0.380746%
BRANCH_RETURN: 1208857 2.41771%
BRANCH_OTHER: 0 0%

