Initialize SIGNATURE TABLE
ST_SET: 1
ST_WAY: 256
ST_TAG_BIT: 16
ST_TAG_MASK: ffff

Initialize PATTERN TABLE
PT_SET: 512
PT_WAY: 4
SIG_DELTA_BIT: 7
C_SIG_BIT: 4
C_DELTA_BIT: 4

Initialize PREFETCH FILTER
FILTER_SET: 1024

*** ChampSim Multicore Out-of-Order Simulator ***

Warmup Instructions: 50000000
Simulation Instructions: 50000000
Number of CPUs: 1
LLC sets: 2048
LLC ways: 16
Off-chip DRAM Size: 4096 MB Channels: 1 Width: 64-bit Data Rate: 3200 MT/s

CPU 0 runs /home/jen/CompArch/ChampSim/server_024.champsimtrace.xz
CPU 0 L1I next line prefetcher
CPU 0 L1D next line prefetcher
Heartbeat CPU 0 instructions: 10000000 cycles: 3499410 heartbeat IPC: 2.85762 cumulative IPC: 2.85762 (Simulation time: 0 hr 0 min 14 sec) 
Heartbeat CPU 0 instructions: 20000002 cycles: 6991333 heartbeat IPC: 2.86375 cumulative IPC: 2.86069 (Simulation time: 0 hr 0 min 29 sec) 
Heartbeat CPU 0 instructions: 30000000 cycles: 10493639 heartbeat IPC: 2.85526 cumulative IPC: 2.85887 (Simulation time: 0 hr 0 min 44 sec) 
Heartbeat CPU 0 instructions: 40000000 cycles: 13993415 heartbeat IPC: 2.85733 cumulative IPC: 2.85849 (Simulation time: 0 hr 0 min 59 sec) 
Heartbeat CPU 0 instructions: 50000001 cycles: 17483300 heartbeat IPC: 2.86542 cumulative IPC: 2.85987 (Simulation time: 0 hr 1 min 13 sec) 

Warmup complete CPU 0 instructions: 50000001 cycles: 17483300 (Simulation time: 0 hr 1 min 13 sec) 

Heartbeat CPU 0 instructions: 60000002 cycles: 26974690 heartbeat IPC: 1.05359 cumulative IPC: 1.05359 (Simulation time: 0 hr 1 min 26 sec) 
Heartbeat CPU 0 instructions: 70000000 cycles: 36497924 heartbeat IPC: 1.05006 cumulative IPC: 1.05182 (Simulation time: 0 hr 1 min 39 sec) 
*** Reached end of trace for Core: 0 Repeating trace: /home/jen/CompArch/ChampSim/server_024.champsimtrace.xz
Heartbeat CPU 0 instructions: 80000001 cycles: 45904690 heartbeat IPC: 1.06306 cumulative IPC: 1.05554 (Simulation time: 0 hr 1 min 54 sec) 
Heartbeat CPU 0 instructions: 90000000 cycles: 55445369 heartbeat IPC: 1.04814 cumulative IPC: 1.05368 (Simulation time: 0 hr 2 min 8 sec) 
Heartbeat CPU 0 instructions: 100000002 cycles: 65042703 heartbeat IPC: 1.04196 cumulative IPC: 1.05132 (Simulation time: 0 hr 2 min 20 sec) 
Finished CPU 0 instructions: 50000001 cycles: 47559403 cumulative IPC: 1.05132 (Simulation time: 0 hr 2 min 20 sec) 

ChampSim completed all CPUs

Region of Interest Statistics

CPU 0 cumulative IPC: 1.05132 instructions: 50000001 cycles: 47559403
L1D TOTAL     ACCESS:   21578256  HIT:   20058607  MISS:    1519649
L1D LOAD      ACCESS:    7842989  HIT:    7169920  MISS:     673069
L1D RFO       ACCESS:    6207806  HIT:    5934557  MISS:     273249
L1D PREFETCH  ACCESS:    7527461  HIT:    6954130  MISS:     573331
L1D WRITEBACK ACCESS:          0  HIT:          0  MISS:          0
L1D PREFETCH  REQUESTED:    7902432  ISSUED:    7790259  USEFUL:     144474  USELESS:     428859
L1D AVERAGE MISS LATENCY: 26.6069 cycles
L1I TOTAL     ACCESS:   10428638  HIT:    7324597  MISS:    3104041
L1I LOAD      ACCESS:    9126688  HIT:    7160008  MISS:    1966680
L1I RFO       ACCESS:          0  HIT:          0  MISS:          0
L1I PREFETCH  ACCESS:    1301950  HIT:     164589  MISS:    1137361
L1I WRITEBACK ACCESS:          0  HIT:          0  MISS:          0
L1I PREFETCH  REQUESTED:    2298273  ISSUED:    2298273  USEFUL:     589306  USELESS:     548059
L1I AVERAGE MISS LATENCY: 18.4152 cycles
L2C TOTAL     ACCESS:    6768140  HIT:    5710989  MISS:    1057151
L2C LOAD      ACCESS:    2348361  HIT:    1886361  MISS:     462000
L2C RFO       ACCESS:     271552  HIT:     170708  MISS:     100844
L2C PREFETCH  ACCESS:    3627883  HIT:    3141634  MISS:     486249
L2C WRITEBACK ACCESS:     520344  HIT:     512286  MISS:       8058
L2C PREFETCH  REQUESTED:    5129793  ISSUED:    5128719  USEFUL:      46599  USELESS:     439690
L2C AVERAGE MISS LATENCY: 39.613 cycles
LLC TOTAL     ACCESS:    2365794  HIT:    2312869  MISS:      52925
LLC LOAD      ACCESS:     461741  HIT:     455243  MISS:       6498
LLC RFO       ACCESS:     100817  HIT:      78527  MISS:      22290
LLC PREFETCH  ACCESS:    1632146  HIT:    1608216  MISS:      23930
LLC WRITEBACK ACCESS:     171090  HIT:     170883  MISS:        207
LLC PREFETCH  REQUESTED:          0  ISSUED:          0  USEFUL:       2603  USELESS:      21774
LLC AVERAGE MISS LATENCY: 195.958 cycles
Major fault: 0 Minor fault: 2372
CPU 0 L1I next line prefetcher final stats
CPU 0 L1D next line prefetcher final stats

DRAM Statistics
 CHANNEL 0
 RQ ROW_BUFFER_HIT:      17711  ROW_BUFFER_MISS:      34986
 DBUS_CONGESTED:      38311
 WQ ROW_BUFFER_HIT:       2688  ROW_BUFFER_MISS:      23332  FULL:          0

 AVG_CONGESTED_CYCLE: 6

CPU 0 Branch Prediction Accuracy: 99.7477% MPKI: 0.46156 Average ROB Occupancy at Mispredict: 100.424

Branch types
NOT_BRANCH: 40853595 81.7072%
BRANCH_DIRECT_JUMP: 566814 1.13363%
BRANCH_INDIRECT: 197171 0.394342%
BRANCH_CONDITIONAL: 6308406 12.6168%
BRANCH_DIRECT_CALL: 876399 1.7528%
BRANCH_INDIRECT_CALL: 160491 0.320982%
BRANCH_RETURN: 1036885 2.07377%
BRANCH_OTHER: 0 0%

