Initialize SIGNATURE TABLE
ST_SET: 1
ST_WAY: 256
ST_TAG_BIT: 16
ST_TAG_MASK: ffff

Initialize PATTERN TABLE
PT_SET: 512
PT_WAY: 4
SIG_DELTA_BIT: 7
C_SIG_BIT: 4
C_DELTA_BIT: 4

Initialize PREFETCH FILTER
FILTER_SET: 1024

*** ChampSim Multicore Out-of-Order Simulator ***

Warmup Instructions: 50000000
Simulation Instructions: 50000000
Number of CPUs: 1
LLC sets: 2048
LLC ways: 16
Off-chip DRAM Size: 4096 MB Channels: 1 Width: 64-bit Data Rate: 3200 MT/s

CPU 0 runs /home/jen/CompArch/ChampSim/server_027.champsimtrace.xz
CPU 0 L1I next line prefetcher
CPU 0 L1D next line prefetcher
Heartbeat CPU 0 instructions: 10000001 cycles: 3526821 heartbeat IPC: 2.83541 cumulative IPC: 2.83541 (Simulation time: 0 hr 0 min 17 sec) 
Heartbeat CPU 0 instructions: 20000001 cycles: 7058643 heartbeat IPC: 2.8314 cumulative IPC: 2.83341 (Simulation time: 0 hr 0 min 33 sec) 
Heartbeat CPU 0 instructions: 30000002 cycles: 10585461 heartbeat IPC: 2.83542 cumulative IPC: 2.83408 (Simulation time: 0 hr 0 min 50 sec) 
Heartbeat CPU 0 instructions: 40000003 cycles: 14117465 heartbeat IPC: 2.83125 cumulative IPC: 2.83337 (Simulation time: 0 hr 1 min 8 sec) 
Heartbeat CPU 0 instructions: 50000001 cycles: 17643469 heartbeat IPC: 2.83607 cumulative IPC: 2.83391 (Simulation time: 0 hr 1 min 26 sec) 

Warmup complete CPU 0 instructions: 50000001 cycles: 17643469 (Simulation time: 0 hr 1 min 26 sec) 

Heartbeat CPU 0 instructions: 60000002 cycles: 27634390 heartbeat IPC: 1.00091 cumulative IPC: 1.00091 (Simulation time: 0 hr 1 min 41 sec) 
Heartbeat CPU 0 instructions: 70000001 cycles: 37542318 heartbeat IPC: 1.00929 cumulative IPC: 1.00508 (Simulation time: 0 hr 1 min 57 sec) 
Heartbeat CPU 0 instructions: 80000002 cycles: 47474511 heartbeat IPC: 1.00683 cumulative IPC: 1.00566 (Simulation time: 0 hr 2 min 11 sec) 
Heartbeat CPU 0 instructions: 90000000 cycles: 57469506 heartbeat IPC: 1.0005 cumulative IPC: 1.00437 (Simulation time: 0 hr 2 min 26 sec) 
Heartbeat CPU 0 instructions: 100000002 cycles: 67345282 heartbeat IPC: 1.01258 cumulative IPC: 1.006 (Simulation time: 0 hr 2 min 41 sec) 
Finished CPU 0 instructions: 50000001 cycles: 49701813 cumulative IPC: 1.006 (Simulation time: 0 hr 2 min 41 sec) 

ChampSim completed all CPUs

Region of Interest Statistics

CPU 0 cumulative IPC: 1.006 instructions: 50000001 cycles: 49701813
L1D TOTAL     ACCESS:   22058861  HIT:   20455031  MISS:    1603830
L1D LOAD      ACCESS:    7982066  HIT:    7301067  MISS:     680999
L1D RFO       ACCESS:    6360929  HIT:    6074912  MISS:     286017
L1D PREFETCH  ACCESS:    7715866  HIT:    7079052  MISS:     636814
L1D WRITEBACK ACCESS:          0  HIT:          0  MISS:          0
L1D PREFETCH  REQUESTED:    8036553  ISSUED:    7923172  USEFUL:     160485  USELESS:     476343
L1D AVERAGE MISS LATENCY: 24.7733 cycles
L1I TOTAL     ACCESS:   10661019  HIT:    7230084  MISS:    3430935
L1I LOAD      ACCESS:    9236720  HIT:    7048870  MISS:    2187850
L1I RFO       ACCESS:          0  HIT:          0  MISS:          0
L1I PREFETCH  ACCESS:    1424299  HIT:     181214  MISS:    1243085
L1I WRITEBACK ACCESS:          0  HIT:          0  MISS:          0
L1I PREFETCH  REQUESTED:    2559860  ISSUED:    2559860  USEFUL:     634698  USELESS:     608389
L1I AVERAGE MISS LATENCY: 18.9843 cycles
L2C TOTAL     ACCESS:    7408503  HIT:    6208404  MISS:    1200099
L2C LOAD      ACCESS:    2570291  HIT:    2032128  MISS:     538163
L2C RFO       ACCESS:     284049  HIT:     176219  MISS:     107830
L2C PREFETCH  ACCESS:    3994744  HIT:    3445731  MISS:     549013
L2C WRITEBACK ACCESS:     559419  HIT:     554326  MISS:       5093
L2C PREFETCH  REQUESTED:    5963057  ISSUED:    5961951  USEFUL:      51915  USELESS:     497141
L2C AVERAGE MISS LATENCY: 36.1111 cycles
LLC TOTAL     ACCESS:    2764799  HIT:    2730718  MISS:      34081
LLC LOAD      ACCESS:     537896  HIT:     533783  MISS:       4113
LLC RFO       ACCESS:     107805  HIT:      93908  MISS:      13897
LLC PREFETCH  ACCESS:    1935469  HIT:    1919541  MISS:      15928
LLC WRITEBACK ACCESS:     183629  HIT:     183486  MISS:        143
LLC PREFETCH  REQUESTED:          0  ISSUED:          0  USEFUL:       1806  USELESS:      14168
LLC AVERAGE MISS LATENCY: 183.94 cycles
Major fault: 0 Minor fault: 2485
CPU 0 L1I next line prefetcher final stats
CPU 0 L1D next line prefetcher final stats

DRAM Statistics
 CHANNEL 0
 RQ ROW_BUFFER_HIT:      11336  ROW_BUFFER_MISS:      22600
 DBUS_CONGESTED:      24049
 WQ ROW_BUFFER_HIT:       1592  ROW_BUFFER_MISS:      14821  FULL:          0

 AVG_CONGESTED_CYCLE: 6

CPU 0 Branch Prediction Accuracy: 99.8082% MPKI: 0.35064 Average ROB Occupancy at Mispredict: 92.7379

Branch types
NOT_BRANCH: 40857229 81.7145%
BRANCH_DIRECT_JUMP: 526631 1.05326%
BRANCH_INDIRECT: 205902 0.411804%
BRANCH_CONDITIONAL: 6184014 12.368%
BRANCH_DIRECT_CALL: 938462 1.87692%
BRANCH_INDIRECT_CALL: 174486 0.348972%
BRANCH_RETURN: 1112952 2.2259%
BRANCH_OTHER: 0 0%

