
*** ChampSim Multicore Out-of-Order Simulator ***

Warmup Instructions: 50000000
Simulation Instructions: 50000000
Number of CPUs: 1
LLC sets: 2048
LLC ways: 16
Off-chip DRAM Size: 4096 MB Channels: 1 Width: 64-bit Data Rate: 3200 MT/s

CPU 0 runs /home/jen/CompArch/240C_22/server_027.champsimtrace.xz
CPU 0 GSHARE branch predictor
LHT KB: 126.25
SCC KB: 1.56
Total KB: 127.81
Caught signal: 2
