Initialize SIGNATURE TABLE
ST_SET: 1
ST_WAY: 256
ST_TAG_BIT: 16
ST_TAG_MASK: ffff

Initialize PATTERN TABLE
PT_SET: 512
PT_WAY: 4
SIG_DELTA_BIT: 7
C_SIG_BIT: 4
C_DELTA_BIT: 4

Initialize PREFETCH FILTER
FILTER_SET: 1024

*** ChampSim Multicore Out-of-Order Simulator ***

Warmup Instructions: 50000000
Simulation Instructions: 50000000
Number of CPUs: 1
LLC sets: 2048
LLC ways: 16
Off-chip DRAM Size: 4096 MB Channels: 1 Width: 64-bit Data Rate: 3200 MT/s

CPU 0 runs /home/jen/CompArch/ChampSim/server_027.champsimtrace.xz
CPU 0 Temporal Ancestry L1I prefetcher
CPU 0 L1D next line prefetcher
Heartbeat CPU 0 instructions: 10000001 cycles: 3557792 heartbeat IPC: 2.81073 cumulative IPC: 2.81073 (Simulation time: 0 hr 0 min 47 sec) 
Heartbeat CPU 0 instructions: 20000001 cycles: 7124908 heartbeat IPC: 2.80339 cumulative IPC: 2.80705 (Simulation time: 0 hr 1 min 35 sec) 
Heartbeat CPU 0 instructions: 30000002 cycles: 10686436 heartbeat IPC: 2.80778 cumulative IPC: 2.8073 (Simulation time: 0 hr 2 min 24 sec) 
Heartbeat CPU 0 instructions: 40000000 cycles: 14256734 heartbeat IPC: 2.80089 cumulative IPC: 2.80569 (Simulation time: 0 hr 3 min 14 sec) 
Heartbeat CPU 0 instructions: 50000000 cycles: 17819855 heartbeat IPC: 2.80653 cumulative IPC: 2.80586 (Simulation time: 0 hr 4 min 3 sec) 

Warmup complete CPU 0 instructions: 50000004 cycles: 17819856 (Simulation time: 0 hr 4 min 3 sec) 

Heartbeat CPU 0 instructions: 60000002 cycles: 26653325 heartbeat IPC: 1.13206 cumulative IPC: 1.13206 (Simulation time: 0 hr 4 min 49 sec) 
Heartbeat CPU 0 instructions: 70000003 cycles: 35347709 heartbeat IPC: 1.15017 cumulative IPC: 1.14104 (Simulation time: 0 hr 5 min 35 sec) 
Heartbeat CPU 0 instructions: 80000002 cycles: 43965049 heartbeat IPC: 1.16045 cumulative IPC: 1.14744 (Simulation time: 0 hr 6 min 21 sec) 
Heartbeat CPU 0 instructions: 90000000 cycles: 52605958 heartbeat IPC: 1.15729 cumulative IPC: 1.14988 (Simulation time: 0 hr 7 min 8 sec) 
Heartbeat CPU 0 instructions: 100000002 cycles: 61061336 heartbeat IPC: 1.18268 cumulative IPC: 1.1563 (Simulation time: 0 hr 7 min 55 sec) 
Finished CPU 0 instructions: 50000002 cycles: 43241481 cumulative IPC: 1.1563 (Simulation time: 0 hr 7 min 55 sec) 

ChampSim completed all CPUs

Region of Interest Statistics

CPU 0 cumulative IPC: 1.1563 instructions: 50000002 cycles: 43241481
L1D TOTAL     ACCESS:   21283951  HIT:   19680558  MISS:    1603393
L1D LOAD      ACCESS:    7623540  HIT:    6936473  MISS:     687067
L1D RFO       ACCESS:    6321414  HIT:    6034579  MISS:     286835
L1D PREFETCH  ACCESS:    7338997  HIT:    6709506  MISS:     629491
L1D WRITEBACK ACCESS:          0  HIT:          0  MISS:          0
L1D PREFETCH  REQUESTED:    7677261  ISSUED:    7561075  USEFUL:     153533  USELESS:     475970
L1D AVERAGE MISS LATENCY: 27.1965 cycles
L1I TOTAL     ACCESS:   25085736  HIT:   10867858  MISS:   14217878
L1I LOAD      ACCESS:    9740825  HIT:    8486461  MISS:    1254364
L1I RFO       ACCESS:          0  HIT:          0  MISS:          0
L1I PREFETCH  ACCESS:   15344911  HIT:    2381397  MISS:   12963514
L1I WRITEBACK ACCESS:          0  HIT:          0  MISS:          0
L1I PREFETCH  REQUESTED:   28685553  ISSUED:   27656010  USEFUL:    2148481  USELESS:   10814992
L1I AVERAGE MISS LATENCY: 15.643 cycles
L2C TOTAL     ACCESS:   18533585  HIT:   17258362  MISS:    1275223
L2C LOAD      ACCESS:    1646381  HIT:    1290260  MISS:     356121
L2C RFO       ACCESS:     283954  HIT:     167752  MISS:     116202
L2C PREFETCH  ACCESS:   16043982  HIT:   15258051  MISS:     785931
L2C WRITEBACK ACCESS:     559268  HIT:     542299  MISS:      16969
L2C PREFETCH  REQUESTED:    3100004  ISSUED:    3099468  USEFUL:      58869  USELESS:     726119
L2C AVERAGE MISS LATENCY: 33.5497 cycles
LLC TOTAL     ACCESS:    2084541  HIT:    2052992  MISS:      31549
LLC LOAD      ACCESS:     356040  HIT:     352485  MISS:       3555
LLC RFO       ACCESS:     116187  HIT:     102068  MISS:      14119
LLC PREFETCH  ACCESS:    1396593  HIT:    1382789  MISS:      13804
LLC WRITEBACK ACCESS:     215721  HIT:     215650  MISS:         71
LLC PREFETCH  REQUESTED:          0  ISSUED:          0  USEFUL:        850  USELESS:      12364
LLC AVERAGE MISS LATENCY: 189.107 cycles
Major fault: 0 Minor fault: 2485
CPU 0 L1D next line prefetcher final stats

DRAM Statistics
 CHANNEL 0
 RQ ROW_BUFFER_HIT:      10459  ROW_BUFFER_MISS:      21019
 DBUS_CONGESTED:      21598
 WQ ROW_BUFFER_HIT:       1567  ROW_BUFFER_MISS:      14308  FULL:          0

 AVG_CONGESTED_CYCLE: 6

CPU 0 Branch Prediction Accuracy: 99.8082% MPKI: 0.35064 Average ROB Occupancy at Mispredict: 110.959

Branch types
NOT_BRANCH: 40857530 81.7151%
BRANCH_DIRECT_JUMP: 526633 1.05327%
BRANCH_INDIRECT: 205902 0.411804%
BRANCH_CONDITIONAL: 6184047 12.3681%
BRANCH_DIRECT_CALL: 938472 1.87694%
BRANCH_INDIRECT_CALL: 174486 0.348972%
BRANCH_RETURN: 1112968 2.22594%
BRANCH_OTHER: 0 0%

