Initialize SIGNATURE TABLE
ST_SET: 1
ST_WAY: 256
ST_TAG_BIT: 16
ST_TAG_MASK: ffff

Initialize PATTERN TABLE
PT_SET: 512
PT_WAY: 4
SIG_DELTA_BIT: 7
C_SIG_BIT: 4
C_DELTA_BIT: 4

Initialize PREFETCH FILTER
FILTER_SET: 1024

*** ChampSim Multicore Out-of-Order Simulator ***

Warmup Instructions: 50000000
Simulation Instructions: 50000000
Number of CPUs: 1
LLC sets: 2048
LLC ways: 16
Off-chip DRAM Size: 4096 MB Channels: 1 Width: 64-bit Data Rate: 3200 MT/s

CPU 0 runs /home/jen/CompArch/ChampSim/server_027.champsimtrace.xz
CPU 0 Temporal Ancestry L1I prefetcher
CPU 0 L1D next line prefetcher
Heartbeat CPU 0 instructions: 10000001 cycles: 3564327 heartbeat IPC: 2.80558 cumulative IPC: 2.80558 (Simulation time: 0 hr 0 min 24 sec) 
Heartbeat CPU 0 instructions: 20000001 cycles: 7134967 heartbeat IPC: 2.80062 cumulative IPC: 2.8031 (Simulation time: 0 hr 0 min 48 sec) 
Heartbeat CPU 0 instructions: 30000002 cycles: 10699481 heartbeat IPC: 2.80543 cumulative IPC: 2.80387 (Simulation time: 0 hr 1 min 11 sec) 
Heartbeat CPU 0 instructions: 40000000 cycles: 14268476 heartbeat IPC: 2.80191 cumulative IPC: 2.80338 (Simulation time: 0 hr 1 min 35 sec) 
Heartbeat CPU 0 instructions: 50000003 cycles: 17833356 heartbeat IPC: 2.80514 cumulative IPC: 2.80374 (Simulation time: 0 hr 1 min 58 sec) 

Warmup complete CPU 0 instructions: 50000003 cycles: 17833356 (Simulation time: 0 hr 1 min 58 sec) 

Heartbeat CPU 0 instructions: 60000002 cycles: 30524016 heartbeat IPC: 0.787981 cumulative IPC: 0.787981 (Simulation time: 0 hr 2 min 21 sec) 
Heartbeat CPU 0 instructions: 70000003 cycles: 43194636 heartbeat IPC: 0.789227 cumulative IPC: 0.788604 (Simulation time: 0 hr 2 min 44 sec) 
Heartbeat CPU 0 instructions: 80000002 cycles: 55826223 heartbeat IPC: 0.791666 cumulative IPC: 0.789622 (Simulation time: 0 hr 3 min 8 sec) 
Heartbeat CPU 0 instructions: 90000000 cycles: 68616596 heartbeat IPC: 0.781838 cumulative IPC: 0.787661 (Simulation time: 0 hr 3 min 32 sec) 
Heartbeat CPU 0 instructions: 100000002 cycles: 81216239 heartbeat IPC: 0.793673 cumulative IPC: 0.788857 (Simulation time: 0 hr 3 min 54 sec) 
Finished CPU 0 instructions: 50000003 cycles: 63382884 cumulative IPC: 0.788857 (Simulation time: 0 hr 3 min 54 sec) 

ChampSim completed all CPUs

Region of Interest Statistics

CPU 0 cumulative IPC: 0.788857 instructions: 50000003 cycles: 63382884
L1D TOTAL     ACCESS:   22543369  HIT:   20939436  MISS:    1603933
L1D LOAD      ACCESS:    8229170  HIT:    7547566  MISS:     681604
L1D RFO       ACCESS:    6365423  HIT:    6079383  MISS:     286040
L1D PREFETCH  ACCESS:    7948776  HIT:    7312487  MISS:     636289
L1D WRITEBACK ACCESS:          0  HIT:          0  MISS:          0
L1D PREFETCH  REQUESTED:    8294100  ISSUED:    8179245  USEFUL:     159812  USELESS:     476489
L1D AVERAGE MISS LATENCY: 36.9752 cycles
L1I TOTAL     ACCESS:   20698488  HIT:    7747057  MISS:   12951431
L1I LOAD      ACCESS:    9417731  HIT:    6839333  MISS:    2578398
L1I RFO       ACCESS:          0  HIT:          0  MISS:          0
L1I PREFETCH  ACCESS:   11280757  HIT:     907724  MISS:   10373033
L1I WRITEBACK ACCESS:          0  HIT:          0  MISS:          0
L1I PREFETCH  REQUESTED:   18698481  ISSUED:   18690457  USEFUL:     793689  USELESS:    9579325
L1I AVERAGE MISS LATENCY: 23.4104 cycles
L2C TOTAL     ACCESS:   15803413  HIT:   11238010  MISS:    4565403
L2C LOAD      ACCESS:    2626434  HIT:    1495346  MISS:    1131088
L2C RFO       ACCESS:     282111  HIT:      84235  MISS:     197876
L2C PREFETCH  ACCESS:   12335467  HIT:    9146049  MISS:    3189418
L2C WRITEBACK ACCESS:     559401  HIT:     512380  MISS:      47021
L2C PREFETCH  REQUESTED:    2535119  ISSUED:    2535048  USEFUL:     141186  USELESS:    3047634
L2C AVERAGE MISS LATENCY: 38.1595 cycles
LLC TOTAL     ACCESS:    6118643  HIT:    5837136  MISS:     281507
LLC LOAD      ACCESS:    1131039  HIT:    1113474  MISS:      17565
LLC RFO       ACCESS:     197856  HIT:     180457  MISS:      17399
LLC PREFETCH  ACCESS:    4407456  HIT:    4161207  MISS:     246249
LLC WRITEBACK ACCESS:     382292  HIT:     381998  MISS:        294
LLC PREFETCH  REQUESTED:          0  ISSUED:          0  USEFUL:       2493  USELESS:     243473
LLC AVERAGE MISS LATENCY: 171.112 cycles
Major fault: 0 Minor fault: 2485
CPU 0 L1D next line prefetcher final stats

DRAM Statistics
 CHANNEL 0
 RQ ROW_BUFFER_HIT:      41472  ROW_BUFFER_MISS:     239709
 DBUS_CONGESTED:      37333
 WQ ROW_BUFFER_HIT:       4009  ROW_BUFFER_MISS:      18853  FULL:          0

 AVG_CONGESTED_CYCLE: 5

CPU 0 Branch Prediction Accuracy: 99.8082% MPKI: 0.35064 Average ROB Occupancy at Mispredict: 89.8234

Branch types
NOT_BRANCH: 40857482 81.715%
BRANCH_DIRECT_JUMP: 526632 1.05326%
BRANCH_INDIRECT: 205902 0.411804%
BRANCH_CONDITIONAL: 6184036 12.3681%
BRANCH_DIRECT_CALL: 938472 1.87694%
BRANCH_INDIRECT_CALL: 174486 0.348972%
BRANCH_RETURN: 1112966 2.22593%
BRANCH_OTHER: 0 0%

