Initialize SIGNATURE TABLE
ST_SET: 1
ST_WAY: 256
ST_TAG_BIT: 16
ST_TAG_MASK: ffff

Initialize PATTERN TABLE
PT_SET: 512
PT_WAY: 4
SIG_DELTA_BIT: 7
C_SIG_BIT: 4
C_DELTA_BIT: 4

Initialize PREFETCH FILTER
FILTER_SET: 1024

*** ChampSim Multicore Out-of-Order Simulator ***

Warmup Instructions: 50000000
Simulation Instructions: 50000000
Number of CPUs: 1
LLC sets: 2048
LLC ways: 16
Off-chip DRAM Size: 4096 MB Channels: 1 Width: 64-bit Data Rate: 3200 MT/s

CPU 0 runs /home/jen/CompArch/ChampSim/server_028.champsimtrace.xz
CPU 0 L1I next line prefetcher
CPU 0 L1D next line prefetcher
Heartbeat CPU 0 instructions: 10000001 cycles: 3497984 heartbeat IPC: 2.85879 cumulative IPC: 2.85879 (Simulation time: 0 hr 0 min 17 sec) 
Heartbeat CPU 0 instructions: 20000002 cycles: 6995420 heartbeat IPC: 2.85924 cumulative IPC: 2.85901 (Simulation time: 0 hr 0 min 35 sec) 
Heartbeat CPU 0 instructions: 30000001 cycles: 10490600 heartbeat IPC: 2.86108 cumulative IPC: 2.8597 (Simulation time: 0 hr 0 min 52 sec) 
Heartbeat CPU 0 instructions: 40000002 cycles: 13992062 heartbeat IPC: 2.85595 cumulative IPC: 2.85876 (Simulation time: 0 hr 1 min 10 sec) 
Heartbeat CPU 0 instructions: 50000001 cycles: 17489558 heartbeat IPC: 2.85919 cumulative IPC: 2.85885 (Simulation time: 0 hr 1 min 27 sec) 

Warmup complete CPU 0 instructions: 50000001 cycles: 17489558 (Simulation time: 0 hr 1 min 27 sec) 

Heartbeat CPU 0 instructions: 60000002 cycles: 27972598 heartbeat IPC: 0.953922 cumulative IPC: 0.953922 (Simulation time: 0 hr 1 min 42 sec) 
Heartbeat CPU 0 instructions: 70000000 cycles: 38446522 heartbeat IPC: 0.954752 cumulative IPC: 0.954337 (Simulation time: 0 hr 1 min 57 sec) 
Heartbeat CPU 0 instructions: 80000000 cycles: 48917963 heartbeat IPC: 0.954978 cumulative IPC: 0.954551 (Simulation time: 0 hr 2 min 12 sec) 
*** Reached end of trace for Core: 0 Repeating trace: /home/jen/CompArch/ChampSim/server_028.champsimtrace.xz
Heartbeat CPU 0 instructions: 90000000 cycles: 59385911 heartbeat IPC: 0.955297 cumulative IPC: 0.954737 (Simulation time: 0 hr 2 min 27 sec) 
Heartbeat CPU 0 instructions: 100000003 cycles: 69805539 heartbeat IPC: 0.959727 cumulative IPC: 0.955731 (Simulation time: 0 hr 2 min 42 sec) 
Finished CPU 0 instructions: 50000002 cycles: 52315981 cumulative IPC: 0.955731 (Simulation time: 0 hr 2 min 42 sec) 

ChampSim completed all CPUs

Region of Interest Statistics

CPU 0 cumulative IPC: 0.955731 instructions: 50000002 cycles: 52315981
L1D TOTAL     ACCESS:   21026601  HIT:   18951179  MISS:    2075422
L1D LOAD      ACCESS:    7670214  HIT:    6634135  MISS:    1036079
L1D RFO       ACCESS:    6172698  HIT:    5887464  MISS:     285234
L1D PREFETCH  ACCESS:    7183689  HIT:    6429580  MISS:     754109
L1D WRITEBACK ACCESS:          0  HIT:          0  MISS:          0
L1D PREFETCH  REQUESTED:    7735868  ISSUED:    7651028  USEFUL:     186246  USELESS:     567863
L1D AVERAGE MISS LATENCY: 23.5069 cycles
L1I TOTAL     ACCESS:   11030375  HIT:    7438694  MISS:    3591681
L1I LOAD      ACCESS:    9521156  HIT:    7255427  MISS:    2265729
L1I RFO       ACCESS:          0  HIT:          0  MISS:          0
L1I PREFETCH  ACCESS:    1509219  HIT:     183267  MISS:    1325952
L1I WRITEBACK ACCESS:          0  HIT:          0  MISS:          0
L1I PREFETCH  REQUESTED:    2655408  ISSUED:    2655408  USEFUL:     688663  USELESS:     637296
L1I AVERAGE MISS LATENCY: 18.0399 cycles
L2C TOTAL     ACCESS:    8336846  HIT:    7147389  MISS:    1189457
L2C LOAD      ACCESS:    2892806  HIT:    2342050  MISS:     550756
L2C RFO       ACCESS:     281958  HIT:     195220  MISS:      86738
L2C PREFETCH  ACCESS:    4556873  HIT:    4009976  MISS:     546897
L2C WRITEBACK ACCESS:     605209  HIT:     600143  MISS:       5066
L2C PREFETCH  REQUESTED:    6558195  ISSUED:    6556369  USEFUL:      33575  USELESS:     513398
L2C AVERAGE MISS LATENCY: 37.0539 cycles
LLC TOTAL     ACCESS:    2822304  HIT:    2757398  MISS:      64906
LLC LOAD      ACCESS:     550572  HIT:     533857  MISS:      16715
LLC RFO       ACCESS:      86500  HIT:      84509  MISS:       1991
LLC PREFETCH  ACCESS:    2014998  HIT:    1969087  MISS:      45911
LLC WRITEBACK ACCESS:     170234  HIT:     169945  MISS:        289
LLC PREFETCH  REQUESTED:          0  ISSUED:          0  USEFUL:       2488  USELESS:      43116
LLC AVERAGE MISS LATENCY: 154.722 cycles
Major fault: 0 Minor fault: 6043
CPU 0 L1I next line prefetcher final stats
CPU 0 L1D next line prefetcher final stats

DRAM Statistics
 CHANNEL 0
 RQ ROW_BUFFER_HIT:      18340  ROW_BUFFER_MISS:      46277
 DBUS_CONGESTED:      25688
 WQ ROW_BUFFER_HIT:        382  ROW_BUFFER_MISS:       3146  FULL:          0

 AVG_CONGESTED_CYCLE: 4

CPU 0 Branch Prediction Accuracy: 99.7093% MPKI: 0.54708 Average ROB Occupancy at Mispredict: 110.532

Branch types
NOT_BRANCH: 40590900 81.1818%
BRANCH_DIRECT_JUMP: 523491 1.04698%
BRANCH_INDIRECT: 166997 0.333994%
BRANCH_CONDITIONAL: 6365181 12.7304%
BRANCH_DIRECT_CALL: 989492 1.97898%
BRANCH_INDIRECT_CALL: 187202 0.374404%
BRANCH_RETURN: 1176699 2.3534%
BRANCH_OTHER: 0 0%

