Initialize SIGNATURE TABLE
ST_SET: 1
ST_WAY: 256
ST_TAG_BIT: 16
ST_TAG_MASK: ffff

Initialize PATTERN TABLE
PT_SET: 512
PT_WAY: 4
SIG_DELTA_BIT: 7
C_SIG_BIT: 4
C_DELTA_BIT: 4

Initialize PREFETCH FILTER
FILTER_SET: 1024

*** ChampSim Multicore Out-of-Order Simulator ***

Warmup Instructions: 50000000
Simulation Instructions: 50000000
Number of CPUs: 1
LLC sets: 2048
LLC ways: 16
Off-chip DRAM Size: 4096 MB Channels: 1 Width: 64-bit Data Rate: 3200 MT/s

CPU 0 runs /home/jen/CompArch/ChampSim/server_027.champsimtrace.xz
CPU 0 Temporal Ancestry L1I prefetcher
CPU 0 L1D next line prefetcher
Heartbeat CPU 0 instructions: 10000001 cycles: 3557250 heartbeat IPC: 2.81116 cumulative IPC: 2.81116 (Simulation time: 0 hr 0 min 54 sec) 
Heartbeat CPU 0 instructions: 20000001 cycles: 7125295 heartbeat IPC: 2.80266 cumulative IPC: 2.8069 (Simulation time: 0 hr 1 min 47 sec) 
Heartbeat CPU 0 instructions: 30000002 cycles: 10685958 heartbeat IPC: 2.80847 cumulative IPC: 2.80742 (Simulation time: 0 hr 2 min 40 sec) 
Heartbeat CPU 0 instructions: 40000000 cycles: 14250215 heartbeat IPC: 2.80563 cumulative IPC: 2.80698 (Simulation time: 0 hr 3 min 33 sec) 
Heartbeat CPU 0 instructions: 50000003 cycles: 17808867 heartbeat IPC: 2.81005 cumulative IPC: 2.80759 (Simulation time: 0 hr 4 min 29 sec) 

Warmup complete CPU 0 instructions: 50000003 cycles: 17808867 (Simulation time: 0 hr 4 min 29 sec) 

Heartbeat CPU 0 instructions: 60000002 cycles: 25329346 heartbeat IPC: 1.3297 cumulative IPC: 1.3297 (Simulation time: 0 hr 5 min 20 sec) 
Heartbeat CPU 0 instructions: 70000003 cycles: 32745529 heartbeat IPC: 1.3484 cumulative IPC: 1.33899 (Simulation time: 0 hr 6 min 13 sec) 
Heartbeat CPU 0 instructions: 80000002 cycles: 40141480 heartbeat IPC: 1.35209 cumulative IPC: 1.34333 (Simulation time: 0 hr 7 min 4 sec) 
Heartbeat CPU 0 instructions: 90000001 cycles: 47602783 heartbeat IPC: 1.34025 cumulative IPC: 1.34256 (Simulation time: 0 hr 7 min 55 sec) 
Heartbeat CPU 0 instructions: 100000002 cycles: 54934774 heartbeat IPC: 1.36389 cumulative IPC: 1.34677 (Simulation time: 0 hr 8 min 47 sec) 
Finished CPU 0 instructions: 50000003 cycles: 37125908 cumulative IPC: 1.34677 (Simulation time: 0 hr 8 min 47 sec) 

ChampSim completed all CPUs

Region of Interest Statistics

CPU 0 cumulative IPC: 1.34677 instructions: 50000003 cycles: 37125908
L1D TOTAL     ACCESS:   20270912  HIT:   18668919  MISS:    1601993
L1D LOAD      ACCESS:    7134902  HIT:    6440970  MISS:     693932
L1D RFO       ACCESS:    6291304  HIT:    6005047  MISS:     286257
L1D PREFETCH  ACCESS:    6844706  HIT:    6222902  MISS:     621804
L1D WRITEBACK ACCESS:          0  HIT:          0  MISS:          0
L1D PREFETCH  REQUESTED:    7187182  ISSUED:    7062902  USEFUL:     147137  USELESS:     474680
L1D AVERAGE MISS LATENCY: 27.51 cycles
L1I TOTAL     ACCESS:   24048547  HIT:   11210258  MISS:   12838289
L1I LOAD      ACCESS:    9744216  HIT:    9231851  MISS:     512365
L1I RFO       ACCESS:          0  HIT:          0  MISS:          0
L1I PREFETCH  ACCESS:   14304331  HIT:    1978407  MISS:   12325924
L1I WRITEBACK ACCESS:          0  HIT:          0  MISS:          0
L1I PREFETCH  REQUESTED:   31333869  ISSUED:   28081762  USEFUL:    2851980  USELESS:    9473913
L1I AVERAGE MISS LATENCY: 15.7836 cycles
L2C TOTAL     ACCESS:   17112028  HIT:   15844063  MISS:    1267965
L2C LOAD      ACCESS:     989276  HIT:     750497  MISS:     238779
L2C RFO       ACCESS:     283790  HIT:     157656  MISS:     126134
L2C PREFETCH  ACCESS:   15279698  HIT:   14400139  MISS:     879559
L2C WRITEBACK ACCESS:     559264  HIT:     535771  MISS:      23493
L2C PREFETCH  REQUESTED:    3111840  ISSUED:    3110813  USEFUL:      48164  USELESS:     830457
L2C AVERAGE MISS LATENCY: 33.4458 cycles
LLC TOTAL     ACCESS:    2061927  HIT:    2030770  MISS:      31157
LLC LOAD      ACCESS:     238626  HIT:     235192  MISS:       3434
LLC RFO       ACCESS:     126116  HIT:     111990  MISS:      14126
LLC PREFETCH  ACCESS:    1467891  HIT:    1454372  MISS:      13519
LLC WRITEBACK ACCESS:     229294  HIT:     229216  MISS:         78
LLC PREFETCH  REQUESTED:          0  ISSUED:          0  USEFUL:        882  USELESS:      11964
LLC AVERAGE MISS LATENCY: 188.673 cycles
Major fault: 0 Minor fault: 2485
CPU 0 L1D next line prefetcher final stats

DRAM Statistics
 CHANNEL 0
 RQ ROW_BUFFER_HIT:      10318  ROW_BUFFER_MISS:      20759
 DBUS_CONGESTED:      21538
 WQ ROW_BUFFER_HIT:       1612  ROW_BUFFER_MISS:      14295  FULL:          0

 AVG_CONGESTED_CYCLE: 6

CPU 0 Branch Prediction Accuracy: 99.8082% MPKI: 0.35064 Average ROB Occupancy at Mispredict: 164.865

Branch types
NOT_BRANCH: 40857756 81.7155%
BRANCH_DIRECT_JUMP: 526636 1.05327%
BRANCH_INDIRECT: 205902 0.411804%
BRANCH_CONDITIONAL: 6184070 12.3681%
BRANCH_DIRECT_CALL: 938479 1.87696%
BRANCH_INDIRECT_CALL: 174486 0.348972%
BRANCH_RETURN: 1112974 2.22595%
BRANCH_OTHER: 0 0%

