Initialize SIGNATURE TABLE
ST_SET: 1
ST_WAY: 256
ST_TAG_BIT: 16
ST_TAG_MASK: ffff

Initialize PATTERN TABLE
PT_SET: 512
PT_WAY: 4
SIG_DELTA_BIT: 7
C_SIG_BIT: 4
C_DELTA_BIT: 4

Initialize PREFETCH FILTER
FILTER_SET: 1024

*** ChampSim Multicore Out-of-Order Simulator ***

Warmup Instructions: 50000000
Simulation Instructions: 50000000
Number of CPUs: 1
LLC sets: 2048
LLC ways: 16
Off-chip DRAM Size: 4096 MB Channels: 1 Width: 64-bit Data Rate: 3200 MT/s

CPU 0 runs /home/jen/CompArch/ChampSim/server_026.champsimtrace.xz
CPU 0 L1I next line prefetcher
CPU 0 L1D next line prefetcher
Heartbeat CPU 0 instructions: 10000000 cycles: 3525512 heartbeat IPC: 2.83647 cumulative IPC: 2.83647 (Simulation time: 0 hr 0 min 15 sec) 
Heartbeat CPU 0 instructions: 20000002 cycles: 7056584 heartbeat IPC: 2.832 cumulative IPC: 2.83423 (Simulation time: 0 hr 0 min 31 sec) 
Heartbeat CPU 0 instructions: 30000000 cycles: 10577655 heartbeat IPC: 2.84004 cumulative IPC: 2.83617 (Simulation time: 0 hr 0 min 46 sec) 
Heartbeat CPU 0 instructions: 40000003 cycles: 14107650 heartbeat IPC: 2.83287 cumulative IPC: 2.83534 (Simulation time: 0 hr 1 min 1 sec) 
Heartbeat CPU 0 instructions: 50000000 cycles: 17630871 heartbeat IPC: 2.83831 cumulative IPC: 2.83593 (Simulation time: 0 hr 1 min 16 sec) 

Warmup complete CPU 0 instructions: 50000004 cycles: 17630872 (Simulation time: 0 hr 1 min 16 sec) 

*** Reached end of trace for Core: 0 Repeating trace: /home/jen/CompArch/ChampSim/server_026.champsimtrace.xz
Heartbeat CPU 0 instructions: 60000000 cycles: 27669699 heartbeat IPC: 0.996132 cumulative IPC: 0.996132 (Simulation time: 0 hr 1 min 30 sec) 
Heartbeat CPU 0 instructions: 70000003 cycles: 37577564 heartbeat IPC: 1.0093 cumulative IPC: 1.00267 (Simulation time: 0 hr 1 min 43 sec) 
Heartbeat CPU 0 instructions: 80000003 cycles: 47631249 heartbeat IPC: 0.99466 cumulative IPC: 0.999987 (Simulation time: 0 hr 1 min 55 sec) 
Heartbeat CPU 0 instructions: 90000002 cycles: 57555544 heartbeat IPC: 1.00763 cumulative IPC: 1.00189 (Simulation time: 0 hr 2 min 8 sec) 
Heartbeat CPU 0 instructions: 100000000 cycles: 67567760 heartbeat IPC: 0.99878 cumulative IPC: 1.00126 (Simulation time: 0 hr 2 min 21 sec) 
Finished CPU 0 instructions: 50000000 cycles: 49936889 cumulative IPC: 1.00126 (Simulation time: 0 hr 2 min 21 sec) 

ChampSim completed all CPUs

Region of Interest Statistics

CPU 0 cumulative IPC: 1.00126 instructions: 50000000 cycles: 49936889
L1D TOTAL     ACCESS:   21901965  HIT:   20255064  MISS:    1646901
L1D LOAD      ACCESS:    7958617  HIT:    7240235  MISS:     718382
L1D RFO       ACCESS:    6308588  HIT:    6020793  MISS:     287795
L1D PREFETCH  ACCESS:    7634760  HIT:    6994036  MISS:     640724
L1D WRITEBACK ACCESS:          0  HIT:          0  MISS:          0
L1D PREFETCH  REQUESTED:    8012013  ISSUED:    7880467  USEFUL:     162047  USELESS:     478688
L1D AVERAGE MISS LATENCY: 25.0098 cycles
L1I TOTAL     ACCESS:   10673003  HIT:    7255948  MISS:    3417055
L1I LOAD      ACCESS:    9251152  HIT:    7071623  MISS:    2179529
L1I RFO       ACCESS:          0  HIT:          0  MISS:          0
L1I PREFETCH  ACCESS:    1421851  HIT:     184325  MISS:    1237526
L1I WRITEBACK ACCESS:          0  HIT:          0  MISS:          0
L1I PREFETCH  REQUESTED:    2565679  ISSUED:    2565679  USEFUL:     629090  USELESS:     608441
L1I AVERAGE MISS LATENCY: 19.0075 cycles
L2C TOTAL     ACCESS:    7425694  HIT:    6195141  MISS:    1230553
L2C LOAD      ACCESS:    2579872  HIT:    2022346  MISS:     557526
L2C RFO       ACCESS:     285383  HIT:     177013  MISS:     108370
L2C PREFETCH  ACCESS:    3999210  HIT:    3439913  MISS:     559297
L2C WRITEBACK ACCESS:     561229  HIT:     555869  MISS:       5360
L2C PREFETCH  REQUESTED:    5901969  ISSUED:    5900868  USEFUL:      47247  USELESS:     512048
L2C AVERAGE MISS LATENCY: 36.3864 cycles
LLC TOTAL     ACCESS:    2816924  HIT:    2780539  MISS:      36385
LLC LOAD      ACCESS:     557341  HIT:     552863  MISS:       4478
LLC RFO       ACCESS:     108353  HIT:      93768  MISS:      14585
LLC PREFETCH  ACCESS:    1958289  HIT:    1941098  MISS:      17191
LLC WRITEBACK ACCESS:     192941  HIT:     192810  MISS:        131
LLC PREFETCH  REQUESTED:          0  ISSUED:          0  USEFUL:       1699  USELESS:      15649
LLC AVERAGE MISS LATENCY: 189.296 cycles
Major fault: 0 Minor fault: 2172
CPU 0 L1I next line prefetcher final stats
CPU 0 L1D next line prefetcher final stats

DRAM Statistics
 CHANNEL 0
 RQ ROW_BUFFER_HIT:      12568  ROW_BUFFER_MISS:      23677
 DBUS_CONGESTED:      24904
 WQ ROW_BUFFER_HIT:       1539  ROW_BUFFER_MISS:      15142  FULL:          0

 AVG_CONGESTED_CYCLE: 6

CPU 0 Branch Prediction Accuracy: 99.822% MPKI: 0.32584 Average ROB Occupancy at Mispredict: 95.8127

Branch types
NOT_BRANCH: 40848537 81.6971%
BRANCH_DIRECT_JUMP: 522045 1.04409%
BRANCH_INDIRECT: 204034 0.408068%
BRANCH_CONDITIONAL: 6212953 12.4259%
BRANCH_DIRECT_CALL: 932389 1.86478%
BRANCH_INDIRECT_CALL: 173764 0.347528%
BRANCH_RETURN: 1106150 2.2123%
BRANCH_OTHER: 0 0%

