Initialize SIGNATURE TABLE
ST_SET: 1
ST_WAY: 256
ST_TAG_BIT: 16
ST_TAG_MASK: ffff

Initialize PATTERN TABLE
PT_SET: 512
PT_WAY: 4
SIG_DELTA_BIT: 7
C_SIG_BIT: 4
C_DELTA_BIT: 4

Initialize PREFETCH FILTER
FILTER_SET: 1024

*** ChampSim Multicore Out-of-Order Simulator ***

Warmup Instructions: 50000000
Simulation Instructions: 50000000
Number of CPUs: 1
LLC sets: 2048
LLC ways: 16
Off-chip DRAM Size: 4096 MB Channels: 1 Width: 64-bit Data Rate: 3200 MT/s

CPU 0 runs /home/jen/CompArch/ChampSim/server_003.champsimtrace.xz
CPU 0 L1I next line prefetcher
CPU 0 L1D next line prefetcher
Heartbeat CPU 0 instructions: 10000002 cycles: 3216713 heartbeat IPC: 3.10876 cumulative IPC: 3.10876 (Simulation time: 0 hr 0 min 13 sec) 
Heartbeat CPU 0 instructions: 20000000 cycles: 6530816 heartbeat IPC: 3.01741 cumulative IPC: 3.0624 (Simulation time: 0 hr 0 min 25 sec) 
Heartbeat CPU 0 instructions: 30000000 cycles: 9734445 heartbeat IPC: 3.12146 cumulative IPC: 3.08184 (Simulation time: 0 hr 0 min 39 sec) 
Heartbeat CPU 0 instructions: 40000001 cycles: 13147178 heartbeat IPC: 2.9302 cumulative IPC: 3.04248 (Simulation time: 0 hr 0 min 54 sec) 
Heartbeat CPU 0 instructions: 50000003 cycles: 16865450 heartbeat IPC: 2.68942 cumulative IPC: 2.96464 (Simulation time: 0 hr 1 min 9 sec) 

Warmup complete CPU 0 instructions: 50000003 cycles: 16865450 (Simulation time: 0 hr 1 min 9 sec) 

Heartbeat CPU 0 instructions: 60000000 cycles: 26581387 heartbeat IPC: 1.02924 cumulative IPC: 1.02924 (Simulation time: 0 hr 1 min 23 sec) 
Heartbeat CPU 0 instructions: 70000003 cycles: 36240829 heartbeat IPC: 1.03526 cumulative IPC: 1.03224 (Simulation time: 0 hr 1 min 35 sec) 
Heartbeat CPU 0 instructions: 80000000 cycles: 48251819 heartbeat IPC: 0.832571 cumulative IPC: 0.955829 (Simulation time: 0 hr 1 min 49 sec) 
Heartbeat CPU 0 instructions: 90000001 cycles: 60535986 heartbeat IPC: 0.814056 cumulative IPC: 0.915949 (Simulation time: 0 hr 2 min 2 sec) 
Heartbeat CPU 0 instructions: 100000001 cycles: 73352737 heartbeat IPC: 0.780229 cumulative IPC: 0.885155 (Simulation time: 0 hr 2 min 15 sec) 
Finished CPU 0 instructions: 50000002 cycles: 56487288 cumulative IPC: 0.885155 (Simulation time: 0 hr 2 min 15 sec) 

ChampSim completed all CPUs

Region of Interest Statistics

CPU 0 cumulative IPC: 0.885155 instructions: 50000002 cycles: 56487288
L1D TOTAL     ACCESS:   20421541  HIT:   19279837  MISS:    1141704
L1D LOAD      ACCESS:    8048940  HIT:    7523510  MISS:     525430
L1D RFO       ACCESS:    4576350  HIT:    4458917  MISS:     117433
L1D PREFETCH  ACCESS:    7796251  HIT:    7297410  MISS:     498841
L1D WRITEBACK ACCESS:          0  HIT:          0  MISS:          0
L1D PREFETCH  REQUESTED:    8108387  ISSUED:    8015621  USEFUL:     160353  USELESS:     338447
L1D AVERAGE MISS LATENCY: 53.3858 cycles
L1I TOTAL     ACCESS:    9706635  HIT:    8636853  MISS:    1069782
L1I LOAD      ACCESS:    9283372  HIT:    8566368  MISS:     717004
L1I RFO       ACCESS:          0  HIT:          0  MISS:          0
L1I PREFETCH  ACCESS:     423263  HIT:      70485  MISS:     352778
L1I WRITEBACK ACCESS:          0  HIT:          0  MISS:          0
L1I PREFETCH  REQUESTED:     923292  ISSUED:     923292  USEFUL:     190598  USELESS:     162169
L1I AVERAGE MISS LATENCY: 31.896 cycles
L2C TOTAL     ACCESS:    3109854  HIT:    2116666  MISS:     993188
L2C LOAD      ACCESS:    1058223  HIT:     654647  MISS:     403576
L2C RFO       ACCESS:     114669  HIT:      41307  MISS:      73362
L2C PREFETCH  ACCESS:    1652638  HIT:    1137238  MISS:     515400
L2C WRITEBACK ACCESS:     284324  HIT:     283474  MISS:        850
L2C PREFETCH  REQUESTED:    2259700  ISSUED:    2259642  USEFUL:      45288  USELESS:     469010
L2C AVERAGE MISS LATENCY: 74.9143 cycles
LLC TOTAL     ACCESS:    1801068  HIT:    1424907  MISS:     376161
LLC LOAD      ACCESS:     403133  HIT:     314285  MISS:      88848
LLC RFO       ACCESS:      73359  HIT:      31834  MISS:      41525
LLC PREFETCH  ACCESS:    1160880  HIT:     916364  MISS:     244516
LLC WRITEBACK ACCESS:     163696  HIT:     162424  MISS:       1272
LLC PREFETCH  REQUESTED:          0  ISSUED:          0  USEFUL:      43310  USELESS:     193185
LLC AVERAGE MISS LATENCY: 177.686 cycles
Major fault: 0 Minor fault: 7774
CPU 0 L1I next line prefetcher final stats
CPU 0 L1D next line prefetcher final stats

DRAM Statistics
 CHANNEL 0
 RQ ROW_BUFFER_HIT:      79819  ROW_BUFFER_MISS:     295046
 DBUS_CONGESTED:     184086
 WQ ROW_BUFFER_HIT:      25197  ROW_BUFFER_MISS:      78010  FULL:          0

 AVG_CONGESTED_CYCLE: 5

CPU 0 Branch Prediction Accuracy: 95.439% MPKI: 9.02702 Average ROB Occupancy at Mispredict: 56.7308

Branch types
NOT_BRANCH: 40104086 80.2082%
BRANCH_DIRECT_JUMP: 497928 0.995856%
BRANCH_INDIRECT: 130587 0.261174%
BRANCH_CONDITIONAL: 7219017 14.438%
BRANCH_DIRECT_CALL: 625807 1.25161%
BRANCH_INDIRECT_CALL: 389787 0.779574%
BRANCH_RETURN: 1032747 2.06549%
BRANCH_OTHER: 0 0%

