Initialize SIGNATURE TABLE
ST_SET: 1
ST_WAY: 256
ST_TAG_BIT: 16
ST_TAG_MASK: ffff

Initialize PATTERN TABLE
PT_SET: 512
PT_WAY: 4
SIG_DELTA_BIT: 7
C_SIG_BIT: 4
C_DELTA_BIT: 4

Initialize PREFETCH FILTER
FILTER_SET: 1024

*** ChampSim Multicore Out-of-Order Simulator ***

Warmup Instructions: 50000000
Simulation Instructions: 50000000
Number of CPUs: 1
LLC sets: 2048
LLC ways: 16
Off-chip DRAM Size: 4096 MB Channels: 1 Width: 64-bit Data Rate: 3200 MT/s

CPU 0 runs /home/jen/CompArch/ChampSim/server_027.champsimtrace.xz
CPU 0 Temporal Ancestry L1I prefetcher
CPU 0 L1D next line prefetcher
Heartbeat CPU 0 instructions: 10000001 cycles: 3536311 heartbeat IPC: 2.82781 cumulative IPC: 2.82781 (Simulation time: 0 hr 1 min 37 sec) 
Heartbeat CPU 0 instructions: 20000001 cycles: 7078931 heartbeat IPC: 2.82277 cumulative IPC: 2.82529 (Simulation time: 0 hr 3 min 16 sec) 
Heartbeat CPU 0 instructions: 30000002 cycles: 10617965 heartbeat IPC: 2.82563 cumulative IPC: 2.8254 (Simulation time: 0 hr 4 min 57 sec) 
Heartbeat CPU 0 instructions: 40000000 cycles: 14160741 heartbeat IPC: 2.82264 cumulative IPC: 2.82471 (Simulation time: 0 hr 6 min 42 sec) 
Heartbeat CPU 0 instructions: 50000001 cycles: 17698318 heartbeat IPC: 2.82679 cumulative IPC: 2.82513 (Simulation time: 0 hr 8 min 29 sec) 

Warmup complete CPU 0 instructions: 50000001 cycles: 17698318 (Simulation time: 0 hr 8 min 29 sec) 

Heartbeat CPU 0 instructions: 60000002 cycles: 24796192 heartbeat IPC: 1.40887 cumulative IPC: 1.40887 (Simulation time: 0 hr 10 min 4 sec) 
Heartbeat CPU 0 instructions: 70000003 cycles: 31850508 heartbeat IPC: 1.41757 cumulative IPC: 1.41321 (Simulation time: 0 hr 11 min 39 sec) 
Heartbeat CPU 0 instructions: 80000002 cycles: 38909370 heartbeat IPC: 1.41666 cumulative IPC: 1.41436 (Simulation time: 0 hr 13 min 12 sec) 
Heartbeat CPU 0 instructions: 90000001 cycles: 46050827 heartbeat IPC: 1.40027 cumulative IPC: 1.41081 (Simulation time: 0 hr 14 min 49 sec) 
Heartbeat CPU 0 instructions: 100000002 cycles: 53079654 heartbeat IPC: 1.42271 cumulative IPC: 1.41317 (Simulation time: 0 hr 16 min 33 sec) 
Finished CPU 0 instructions: 50000001 cycles: 35381336 cumulative IPC: 1.41317 (Simulation time: 0 hr 16 min 33 sec) 

ChampSim completed all CPUs

Region of Interest Statistics

CPU 0 cumulative IPC: 1.41317 instructions: 50000001 cycles: 35381336
L1D TOTAL     ACCESS:   19887829  HIT:   18286168  MISS:    1601661
L1D LOAD      ACCESS:    6947856  HIT:    6253880  MISS:     693976
L1D RFO       ACCESS:    6283079  HIT:    5997254  MISS:     285825
L1D PREFETCH  ACCESS:    6656894  HIT:    6035034  MISS:     621860
L1D WRITEBACK ACCESS:          0  HIT:          0  MISS:          0
L1D PREFETCH  REQUESTED:    6998640  ISSUED:    6871689  USEFUL:     147083  USELESS:     474789
L1D AVERAGE MISS LATENCY: 26.9879 cycles
L1I TOTAL     ACCESS:   18072389  HIT:   11110797  MISS:    6961592
L1I LOAD      ACCESS:    9623886  HIT:    9540191  MISS:      83695
L1I RFO       ACCESS:          0  HIT:          0  MISS:          0
L1I PREFETCH  ACCESS:    8448503  HIT:    1570606  MISS:    6877897
L1I WRITEBACK ACCESS:          0  HIT:          0  MISS:          0
L1I PREFETCH  REQUESTED:   20554050  ISSUED:   20215572  USEFUL:    3024520  USELESS:    3853367
L1I AVERAGE MISS LATENCY: 17.9866 cycles
L2C TOTAL     ACCESS:   10701749  HIT:    9341932  MISS:    1359817
L2C LOAD      ACCESS:     690152  HIT:     495111  MISS:     195041
L2C RFO       ACCESS:     283658  HIT:     161147  MISS:     122511
L2C PREFETCH  ACCESS:    9168663  HIT:    8139438  MISS:    1029225
L2C WRITEBACK ACCESS:     559276  HIT:     546236  MISS:      13040
L2C PREFETCH  REQUESTED:    2783853  ISSUED:    2778836  USEFUL:      18521  USELESS:    1010508
L2C AVERAGE MISS LATENCY: 33.5619 cycles
LLC TOTAL     ACCESS:    2262081  HIT:    2229238  MISS:      32843
LLC LOAD      ACCESS:     194901  HIT:     191417  MISS:       3484
LLC RFO       ACCESS:     122471  HIT:     108386  MISS:      14085
LLC PREFETCH  ACCESS:    1725061  HIT:    1709855  MISS:      15206
LLC WRITEBACK ACCESS:     219648  HIT:     219580  MISS:         68
LLC PREFETCH  REQUESTED:          0  ISSUED:          0  USEFUL:       1036  USELESS:      13861
LLC AVERAGE MISS LATENCY: 186.526 cycles
Major fault: 0 Minor fault: 2485
CPU 0 L1D next line prefetcher final stats

DRAM Statistics
 CHANNEL 0
 RQ ROW_BUFFER_HIT:      10687  ROW_BUFFER_MISS:      22086
 DBUS_CONGESTED:      21963
 WQ ROW_BUFFER_HIT:       1479  ROW_BUFFER_MISS:      14528  FULL:          0

 AVG_CONGESTED_CYCLE: 6

CPU 0 Branch Prediction Accuracy: 99.8082% MPKI: 0.35064 Average ROB Occupancy at Mispredict: 192.938

Branch types
NOT_BRANCH: 40857513 81.715%
BRANCH_DIRECT_JUMP: 526635 1.05327%
BRANCH_INDIRECT: 205902 0.411804%
BRANCH_CONDITIONAL: 6184050 12.3681%
BRANCH_DIRECT_CALL: 938468 1.87694%
BRANCH_INDIRECT_CALL: 174486 0.348972%
BRANCH_RETURN: 1112959 2.22592%
BRANCH_OTHER: 0 0%

