Initialize SIGNATURE TABLE
ST_SET: 1
ST_WAY: 256
ST_TAG_BIT: 16
ST_TAG_MASK: ffff

Initialize PATTERN TABLE
PT_SET: 512
PT_WAY: 4
SIG_DELTA_BIT: 7
C_SIG_BIT: 4
C_DELTA_BIT: 4

Initialize PREFETCH FILTER
FILTER_SET: 1024

*** ChampSim Multicore Out-of-Order Simulator ***

Warmup Instructions: 50000000
Simulation Instructions: 50000000
Number of CPUs: 1
LLC sets: 2048
LLC ways: 16
Off-chip DRAM Size: 4096 MB Channels: 1 Width: 64-bit Data Rate: 3200 MT/s

CPU 0 runs /home/jen/CompArch/ChampSim/server_023.champsimtrace.xz
CPU 0 L1I next line prefetcher
CPU 0 L1D next line prefetcher
Heartbeat CPU 0 instructions: 10000000 cycles: 3499758 heartbeat IPC: 2.85734 cumulative IPC: 2.85734 (Simulation time: 0 hr 0 min 15 sec) 
Heartbeat CPU 0 instructions: 20000000 cycles: 6998397 heartbeat IPC: 2.85825 cumulative IPC: 2.8578 (Simulation time: 0 hr 0 min 33 sec) 
Heartbeat CPU 0 instructions: 30000001 cycles: 10490717 heartbeat IPC: 2.86343 cumulative IPC: 2.85967 (Simulation time: 0 hr 0 min 49 sec) 
Heartbeat CPU 0 instructions: 40000003 cycles: 13989402 heartbeat IPC: 2.85822 cumulative IPC: 2.85931 (Simulation time: 0 hr 1 min 4 sec) 
Heartbeat CPU 0 instructions: 50000001 cycles: 17489649 heartbeat IPC: 2.85694 cumulative IPC: 2.85883 (Simulation time: 0 hr 1 min 20 sec) 

Warmup complete CPU 0 instructions: 50000001 cycles: 17489649 (Simulation time: 0 hr 1 min 20 sec) 

Heartbeat CPU 0 instructions: 60000000 cycles: 26904608 heartbeat IPC: 1.06214 cumulative IPC: 1.06214 (Simulation time: 0 hr 1 min 33 sec) 
Heartbeat CPU 0 instructions: 70000000 cycles: 36422197 heartbeat IPC: 1.05069 cumulative IPC: 1.05638 (Simulation time: 0 hr 1 min 46 sec) 
Heartbeat CPU 0 instructions: 80000000 cycles: 45876999 heartbeat IPC: 1.05766 cumulative IPC: 1.05681 (Simulation time: 0 hr 1 min 59 sec) 
Heartbeat CPU 0 instructions: 90000000 cycles: 54869460 heartbeat IPC: 1.11204 cumulative IPC: 1.0701 (Simulation time: 0 hr 2 min 10 sec) 
Heartbeat CPU 0 instructions: 100000001 cycles: 64366248 heartbeat IPC: 1.05299 cumulative IPC: 1.06663 (Simulation time: 0 hr 2 min 23 sec) 
Finished CPU 0 instructions: 50000000 cycles: 46876599 cumulative IPC: 1.06663 (Simulation time: 0 hr 2 min 23 sec) 

ChampSim completed all CPUs

Region of Interest Statistics

CPU 0 cumulative IPC: 1.06663 instructions: 50000000 cycles: 46876599
L1D TOTAL     ACCESS:   21134672  HIT:   19666158  MISS:    1468514
L1D LOAD      ACCESS:    7704280  HIT:    7050727  MISS:     653553
L1D RFO       ACCESS:    6033552  HIT:    5771385  MISS:     262167
L1D PREFETCH  ACCESS:    7396840  HIT:    6844046  MISS:     552794
L1D WRITEBACK ACCESS:          0  HIT:          0  MISS:          0
L1D PREFETCH  REQUESTED:    7759762  ISSUED:    7647446  USEFUL:     137088  USELESS:     415714
L1D AVERAGE MISS LATENCY: 25.735 cycles
L1I TOTAL     ACCESS:   10494658  HIT:    7505144  MISS:    2989514
L1I LOAD      ACCESS:    9247190  HIT:    7351963  MISS:    1895227
L1I RFO       ACCESS:          0  HIT:          0  MISS:          0
L1I PREFETCH  ACCESS:    1247468  HIT:     153181  MISS:    1094287
L1I WRITEBACK ACCESS:          0  HIT:          0  MISS:          0
L1I PREFETCH  REQUESTED:    2216182  ISSUED:    2216182  USEFUL:     562559  USELESS:     531713
L1I AVERAGE MISS LATENCY: 18.3283 cycles
L2C TOTAL     ACCESS:    6545567  HIT:    5551182  MISS:     994385
L2C LOAD      ACCESS:    2268416  HIT:    1835031  MISS:     433385
L2C RFO       ACCESS:     259754  HIT:     153011  MISS:     106743
L2C PREFETCH  ACCESS:    3518064  HIT:    3067970  MISS:     450094
L2C WRITEBACK ACCESS:     499333  HIT:     495170  MISS:       4163
L2C PREFETCH  REQUESTED:    5044140  ISSUED:    5043224  USEFUL:      48649  USELESS:     401717
L2C AVERAGE MISS LATENCY: 38.7155 cycles
LLC TOTAL     ACCESS:    2306583  HIT:    2256430  MISS:      50153
LLC LOAD      ACCESS:     433108  HIT:     426036  MISS:       7072
LLC RFO       ACCESS:     106635  HIT:      88768  MISS:      17867
LLC PREFETCH  ACCESS:    1591639  HIT:    1566591  MISS:      25048
LLC WRITEBACK ACCESS:     175201  HIT:     175035  MISS:        166
LLC PREFETCH  REQUESTED:          0  ISSUED:          0  USEFUL:       2745  USELESS:      22572
LLC AVERAGE MISS LATENCY: 181.19 cycles
Major fault: 0 Minor fault: 2775
CPU 0 L1I next line prefetcher final stats
CPU 0 L1D next line prefetcher final stats

DRAM Statistics
 CHANNEL 0
 RQ ROW_BUFFER_HIT:      15104  ROW_BUFFER_MISS:      34869
 DBUS_CONGESTED:      33196
 WQ ROW_BUFFER_HIT:       2415  ROW_BUFFER_MISS:      19367  FULL:          0

 AVG_CONGESTED_CYCLE: 6

CPU 0 Branch Prediction Accuracy: 99.6798% MPKI: 0.58608 Average ROB Occupancy at Mispredict: 86.5452

Branch types
NOT_BRANCH: 40848078 81.6962%
BRANCH_DIRECT_JUMP: 548368 1.09674%
BRANCH_INDIRECT: 189802 0.379604%
BRANCH_CONDITIONAL: 6372722 12.7454%
BRANCH_DIRECT_CALL: 862205 1.72441%
BRANCH_INDIRECT_CALL: 158147 0.316294%
BRANCH_RETURN: 1020341 2.04068%
BRANCH_OTHER: 0 0%

