Initialize SIGNATURE TABLE
ST_SET: 1
ST_WAY: 256
ST_TAG_BIT: 16
ST_TAG_MASK: ffff

Initialize PATTERN TABLE
PT_SET: 512
PT_WAY: 4
SIG_DELTA_BIT: 7
C_SIG_BIT: 4
C_DELTA_BIT: 4

Initialize PREFETCH FILTER
FILTER_SET: 1024

*** ChampSim Multicore Out-of-Order Simulator ***

Warmup Instructions: 50000000
Simulation Instructions: 50000000
Number of CPUs: 1
LLC sets: 2048
LLC ways: 16
Off-chip DRAM Size: 4096 MB Channels: 1 Width: 64-bit Data Rate: 3200 MT/s

CPU 0 runs /home/jen/CompArch/ChampSim/spec_gobmk_001.champsimtrace.xz
CPU 0 Temporal Ancestry L1I prefetcher
CPU 0 L1D next line prefetcher
Heartbeat CPU 0 instructions: 10000003 cycles: 3507307 heartbeat IPC: 2.85119 cumulative IPC: 2.85119 (Simulation time: 0 hr 0 min 40 sec) 
Heartbeat CPU 0 instructions: 20000002 cycles: 6987987 heartbeat IPC: 2.873 cumulative IPC: 2.86205 (Simulation time: 0 hr 1 min 39 sec) 
Heartbeat CPU 0 instructions: 30000002 cycles: 10507811 heartbeat IPC: 2.84105 cumulative IPC: 2.85502 (Simulation time: 0 hr 3 min 14 sec) 
Heartbeat CPU 0 instructions: 40000001 cycles: 14027806 heartbeat IPC: 2.84091 cumulative IPC: 2.85148 (Simulation time: 0 hr 4 min 50 sec) 
Heartbeat CPU 0 instructions: 50000001 cycles: 17568774 heartbeat IPC: 2.82409 cumulative IPC: 2.84596 (Simulation time: 0 hr 6 min 28 sec) 

Warmup complete CPU 0 instructions: 50000001 cycles: 17568774 (Simulation time: 0 hr 6 min 28 sec) 

Heartbeat CPU 0 instructions: 60000000 cycles: 26345825 heartbeat IPC: 1.13933 cumulative IPC: 1.13933 (Simulation time: 0 hr 7 min 45 sec) 
Heartbeat CPU 0 instructions: 70000002 cycles: 34744212 heartbeat IPC: 1.19071 cumulative IPC: 1.16445 (Simulation time: 0 hr 9 min 3 sec) 
Heartbeat CPU 0 instructions: 80000003 cycles: 43567383 heartbeat IPC: 1.13338 cumulative IPC: 1.15391 (Simulation time: 0 hr 10 min 24 sec) 
Heartbeat CPU 0 instructions: 90000001 cycles: 52067471 heartbeat IPC: 1.17646 cumulative IPC: 1.15946 (Simulation time: 0 hr 11 min 42 sec) 
Heartbeat CPU 0 instructions: 100000003 cycles: 60875764 heartbeat IPC: 1.13529 cumulative IPC: 1.15455 (Simulation time: 0 hr 13 min 1 sec) 
Finished CPU 0 instructions: 50000002 cycles: 43306990 cumulative IPC: 1.15455 (Simulation time: 0 hr 13 min 1 sec) 

ChampSim completed all CPUs

Region of Interest Statistics

CPU 0 cumulative IPC: 1.15455 instructions: 50000002 cycles: 43306990
L1D TOTAL     ACCESS:   18003564  HIT:   17624075  MISS:     379489
L1D LOAD      ACCESS:    7220523  HIT:    7086150  MISS:     134373
L1D RFO       ACCESS:    3701546  HIT:    3596995  MISS:     104551
L1D PREFETCH  ACCESS:    7081495  HIT:    6940930  MISS:     140565
L1D WRITEBACK ACCESS:          0  HIT:          0  MISS:          0
L1D PREFETCH  REQUESTED:    7226049  ISSUED:    7143285  USEFUL:      45887  USELESS:      94683
L1D AVERAGE MISS LATENCY: 34.6486 cycles
L1I TOTAL     ACCESS:   12241373  HIT:    9579966  MISS:    2661407
L1I LOAD      ACCESS:    9011607  HIT:    8968652  MISS:      42955
L1I RFO       ACCESS:          0  HIT:          0  MISS:          0
L1I PREFETCH  ACCESS:    3229766  HIT:     611314  MISS:    2618452
L1I WRITEBACK ACCESS:          0  HIT:          0  MISS:          0
L1I PREFETCH  REQUESTED:    6701377  ISSUED:    6698445  USEFUL:    1091003  USELESS:    1527461
L1I AVERAGE MISS LATENCY: 14.8987 cycles
L2C TOTAL     ACCESS:    3426228  HIT:    3286234  MISS:     139994
L2C LOAD      ACCESS:     128342  HIT:      92566  MISS:      35776
L2C RFO       ACCESS:     104194  HIT:      69153  MISS:      35041
L2C PREFETCH  ACCESS:    3054409  HIT:    2985314  MISS:      69095
L2C WRITEBACK ACCESS:     139283  HIT:     139201  MISS:         82
L2C PREFETCH  REQUESTED:     378785  ISSUED:     378777  USEFUL:       4556  USELESS:      65072
L2C AVERAGE MISS LATENCY: 62.9258 cycles
LLC TOTAL     ACCESS:     231740  HIT:     201158  MISS:      30582
LLC LOAD      ACCESS:      35774  HIT:      27513  MISS:       8261
LLC RFO       ACCESS:      35041  HIT:      28887  MISS:       6154
LLC PREFETCH  ACCESS:     114736  HIT:      98762  MISS:      15974
LLC WRITEBACK ACCESS:      46189  HIT:      45996  MISS:        193
LLC PREFETCH  REQUESTED:          0  ISSUED:          0  USEFUL:        959  USELESS:      14460
LLC AVERAGE MISS LATENCY: 180.639 cycles
Major fault: 0 Minor fault: 4161
CPU 0 L1D next line prefetcher final stats

DRAM Statistics
 CHANNEL 0
 RQ ROW_BUFFER_HIT:       4273  ROW_BUFFER_MISS:      26115
 DBUS_CONGESTED:      14615
 WQ ROW_BUFFER_HIT:       1254  ROW_BUFFER_MISS:      13599  FULL:          0

 AVG_CONGESTED_CYCLE: 4

CPU 0 Branch Prediction Accuracy: 94.7729% MPKI: 9.72684 Average ROB Occupancy at Mispredict: 54.1114

Branch types
NOT_BRANCH: 40695396 81.3908%
BRANCH_DIRECT_JUMP: 422107 0.844214%
BRANCH_INDIRECT: 65 0.00013%
BRANCH_CONDITIONAL: 8105005 16.21%
BRANCH_DIRECT_CALL: 374913 0.749826%
BRANCH_INDIRECT_CALL: 13657 0.027314%
BRANCH_RETURN: 388556 0.777112%
BRANCH_OTHER: 0 0%

