Initialize SIGNATURE TABLE
ST_SET: 1
ST_WAY: 256
ST_TAG_BIT: 16
ST_TAG_MASK: ffff

Initialize PATTERN TABLE
PT_SET: 512
PT_WAY: 4
SIG_DELTA_BIT: 7
C_SIG_BIT: 4
C_DELTA_BIT: 4

Initialize PREFETCH FILTER
FILTER_SET: 1024

*** ChampSim Multicore Out-of-Order Simulator ***

Warmup Instructions: 50000000
Simulation Instructions: 50000000
Number of CPUs: 1
LLC sets: 2048
LLC ways: 16
Off-chip DRAM Size: 4096 MB Channels: 1 Width: 64-bit Data Rate: 3200 MT/s

CPU 0 runs /home/jen/CompArch/ChampSim/spec_gobmk_001.champsimtrace.xz
CPU 0 L1I next line prefetcher
CPU 0 L1D next line prefetcher
Heartbeat CPU 0 instructions: 10000003 cycles: 3506860 heartbeat IPC: 2.85155 cumulative IPC: 2.85155 (Simulation time: 0 hr 0 min 15 sec) 
Heartbeat CPU 0 instructions: 20000002 cycles: 6987058 heartbeat IPC: 2.8734 cumulative IPC: 2.86244 (Simulation time: 0 hr 0 min 29 sec) 
Heartbeat CPU 0 instructions: 30000002 cycles: 10505877 heartbeat IPC: 2.84186 cumulative IPC: 2.85554 (Simulation time: 0 hr 0 min 43 sec) 
Heartbeat CPU 0 instructions: 40000001 cycles: 14024867 heartbeat IPC: 2.84172 cumulative IPC: 2.85208 (Simulation time: 0 hr 0 min 57 sec) 
Heartbeat CPU 0 instructions: 50000001 cycles: 17564719 heartbeat IPC: 2.82498 cumulative IPC: 2.84662 (Simulation time: 0 hr 1 min 12 sec) 

Warmup complete CPU 0 instructions: 50000001 cycles: 17564719 (Simulation time: 0 hr 1 min 12 sec) 

Heartbeat CPU 0 instructions: 60000000 cycles: 26664861 heartbeat IPC: 1.09888 cumulative IPC: 1.09888 (Simulation time: 0 hr 1 min 24 sec) 
Heartbeat CPU 0 instructions: 70000002 cycles: 35465486 heartbeat IPC: 1.13628 cumulative IPC: 1.11727 (Simulation time: 0 hr 1 min 35 sec) 
Heartbeat CPU 0 instructions: 80000003 cycles: 44622738 heartbeat IPC: 1.09203 cumulative IPC: 1.10873 (Simulation time: 0 hr 1 min 47 sec) 
Heartbeat CPU 0 instructions: 90000001 cycles: 53412151 heartbeat IPC: 1.13773 cumulative IPC: 1.11584 (Simulation time: 0 hr 1 min 59 sec) 
Heartbeat CPU 0 instructions: 100000003 cycles: 62563198 heartbeat IPC: 1.09277 cumulative IPC: 1.11115 (Simulation time: 0 hr 2 min 11 sec) 
Finished CPU 0 instructions: 50000002 cycles: 44998479 cumulative IPC: 1.11115 (Simulation time: 0 hr 2 min 11 sec) 

ChampSim completed all CPUs

Region of Interest Statistics

CPU 0 cumulative IPC: 1.11115 instructions: 50000002 cycles: 44998479
L1D TOTAL     ACCESS:   18075759  HIT:   17696082  MISS:     379677
L1D LOAD      ACCESS:    7252900  HIT:    7118108  MISS:     134792
L1D RFO       ACCESS:    3708031  HIT:    3603577  MISS:     104454
L1D PREFETCH  ACCESS:    7114828  HIT:    6974397  MISS:     140431
L1D WRITEBACK ACCESS:          0  HIT:          0  MISS:          0
L1D PREFETCH  REQUESTED:    7257853  ISSUED:    7175172  USEFUL:      45655  USELESS:      94781
L1D AVERAGE MISS LATENCY: 33.6039 cycles
L1I TOTAL     ACCESS:    9175539  HIT:    8731474  MISS:     444065
L1I LOAD      ACCESS:    8939586  HIT:    8651468  MISS:     288118
L1I RFO       ACCESS:          0  HIT:          0  MISS:          0
L1I PREFETCH  ACCESS:     235953  HIT:      80006  MISS:     155947
L1I WRITEBACK ACCESS:          0  HIT:          0  MISS:          0
L1I PREFETCH  REQUESTED:     362838  ISSUED:     362838  USEFUL:      96365  USELESS:      59584
L1I AVERAGE MISS LATENCY: 14.8248 cycles
L2C TOTAL     ACCESS:    1340149  HIT:    1213404  MISS:     126745
L2C LOAD      ACCESS:     385104  HIT:     344850  MISS:      40254
L2C RFO       ACCESS:     104168  HIT:      70533  MISS:      33635
L2C PREFETCH  ACCESS:     711559  HIT:     658726  MISS:      52833
L2C WRITEBACK ACCESS:     139318  HIT:     139295  MISS:         23
L2C PREFETCH  REQUESTED:     793939  ISSUED:     793907  USEFUL:       5175  USELESS:      47978
L2C AVERAGE MISS LATENCY: 64.8449 cycles
LLC TOTAL     ACCESS:     271757  HIT:     234591  MISS:      37166
LLC LOAD      ACCESS:      40253  HIT:      31815  MISS:       8438
LLC RFO       ACCESS:      33635  HIT:      26617  MISS:       7018
LLC PREFETCH  ACCESS:     153632  HIT:     132208  MISS:      21424
LLC WRITEBACK ACCESS:      44237  HIT:      43951  MISS:        286
LLC PREFETCH  REQUESTED:          0  ISSUED:          0  USEFUL:       1492  USELESS:      18616
LLC AVERAGE MISS LATENCY: 177.756 cycles
Major fault: 0 Minor fault: 4161
CPU 0 L1I next line prefetcher final stats
CPU 0 L1D next line prefetcher final stats

DRAM Statistics
 CHANNEL 0
 RQ ROW_BUFFER_HIT:       4940  ROW_BUFFER_MISS:      31940
 DBUS_CONGESTED:      21981
 WQ ROW_BUFFER_HIT:       1527  ROW_BUFFER_MISS:      15233  FULL:          0

 AVG_CONGESTED_CYCLE: 4

CPU 0 Branch Prediction Accuracy: 94.7729% MPKI: 9.72684 Average ROB Occupancy at Mispredict: 51.5804

Branch types
NOT_BRANCH: 40695383 81.3908%
BRANCH_DIRECT_JUMP: 422107 0.844214%
BRANCH_INDIRECT: 65 0.00013%
BRANCH_CONDITIONAL: 8105005 16.21%
BRANCH_DIRECT_CALL: 374913 0.749826%
BRANCH_INDIRECT_CALL: 13657 0.027314%
BRANCH_RETURN: 388556 0.777112%
BRANCH_OTHER: 0 0%

