Initialize SIGNATURE TABLE
ST_SET: 1
ST_WAY: 256
ST_TAG_BIT: 16
ST_TAG_MASK: ffff

Initialize PATTERN TABLE
PT_SET: 512
PT_WAY: 4
SIG_DELTA_BIT: 7
C_SIG_BIT: 4
C_DELTA_BIT: 4

Initialize PREFETCH FILTER
FILTER_SET: 1024

*** ChampSim Multicore Out-of-Order Simulator ***

Warmup Instructions: 50000000
Simulation Instructions: 50000000
Number of CPUs: 1
LLC sets: 2048
LLC ways: 16
Off-chip DRAM Size: 4096 MB Channels: 1 Width: 64-bit Data Rate: 3200 MT/s

CPU 0 runs /home/jen/CompArch/ChampSim/spec_gobmk_002.champsimtrace.xz
CPU 0 L1I next line prefetcher
CPU 0 L1D next line prefetcher
Heartbeat CPU 0 instructions: 10000001 cycles: 3287450 heartbeat IPC: 3.04187 cumulative IPC: 3.04187 (Simulation time: 0 hr 0 min 14 sec) 
Heartbeat CPU 0 instructions: 20000000 cycles: 6619022 heartbeat IPC: 3.00159 cumulative IPC: 3.02159 (Simulation time: 0 hr 0 min 28 sec) 
Heartbeat CPU 0 instructions: 30000000 cycles: 9957024 heartbeat IPC: 2.9958 cumulative IPC: 3.01295 (Simulation time: 0 hr 0 min 42 sec) 
Heartbeat CPU 0 instructions: 40000000 cycles: 13266482 heartbeat IPC: 3.02164 cumulative IPC: 3.01512 (Simulation time: 0 hr 0 min 56 sec) 
Heartbeat CPU 0 instructions: 50000003 cycles: 16530042 heartbeat IPC: 3.06414 cumulative IPC: 3.0248 (Simulation time: 0 hr 1 min 10 sec) 

Warmup complete CPU 0 instructions: 50000003 cycles: 16530042 (Simulation time: 0 hr 1 min 10 sec) 

Heartbeat CPU 0 instructions: 60000003 cycles: 24381837 heartbeat IPC: 1.27359 cumulative IPC: 1.27359 (Simulation time: 0 hr 1 min 21 sec) 
Heartbeat CPU 0 instructions: 70000001 cycles: 32207658 heartbeat IPC: 1.27782 cumulative IPC: 1.2757 (Simulation time: 0 hr 1 min 32 sec) 
Heartbeat CPU 0 instructions: 80000000 cycles: 39857765 heartbeat IPC: 1.30717 cumulative IPC: 1.28602 (Simulation time: 0 hr 1 min 43 sec) 
Heartbeat CPU 0 instructions: 90000001 cycles: 47762443 heartbeat IPC: 1.26507 cumulative IPC: 1.28072 (Simulation time: 0 hr 1 min 54 sec) 
Heartbeat CPU 0 instructions: 100000003 cycles: 55855233 heartbeat IPC: 1.23567 cumulative IPC: 1.27145 (Simulation time: 0 hr 2 min 4 sec) 
Finished CPU 0 instructions: 50000000 cycles: 39325191 cumulative IPC: 1.27145 (Simulation time: 0 hr 2 min 4 sec) 

ChampSim completed all CPUs

Region of Interest Statistics

CPU 0 cumulative IPC: 1.27145 instructions: 50000000 cycles: 39325191
L1D TOTAL     ACCESS:   17750803  HIT:   17627671  MISS:     123132
L1D LOAD      ACCESS:    6717930  HIT:    6683770  MISS:      34160
L1D RFO       ACCESS:    4392654  HIT:    4350006  MISS:      42648
L1D PREFETCH  ACCESS:    6640219  HIT:    6593895  MISS:      46324
L1D WRITEBACK ACCESS:          0  HIT:          0  MISS:          0
L1D PREFETCH  REQUESTED:    6720339  ISSUED:    6653046  USEFUL:      17265  USELESS:      29243
L1D AVERAGE MISS LATENCY: 50.3782 cycles
L1I TOTAL     ACCESS:    9165990  HIT:    8574354  MISS:     591636
L1I LOAD      ACCESS:    8846622  HIT:    8462935  MISS:     383687
L1I RFO       ACCESS:          0  HIT:          0  MISS:          0
L1I PREFETCH  ACCESS:     319368  HIT:     111419  MISS:     207949
L1I WRITEBACK ACCESS:          0  HIT:          0  MISS:          0
L1I PREFETCH  REQUESTED:     481482  ISSUED:     481482  USEFUL:     127709  USELESS:      80235
L1I AVERAGE MISS LATENCY: 14.0869 cycles
L2C TOTAL     ACCESS:    1182079  HIT:    1143907  MISS:      38172
L2C LOAD      ACCESS:     400774  HIT:     386386  MISS:      14388
L2C RFO       ACCESS:      42528  HIT:      39702  MISS:       2826
L2C PREFETCH  ACCESS:     664570  HIT:     643755  MISS:      20815
L2C WRITEBACK ACCESS:      74207  HIT:      74064  MISS:        143
L2C PREFETCH  REQUESTED:     713046  ISSUED:     713028  USEFUL:       2542  USELESS:      18648
L2C AVERAGE MISS LATENCY: 124.181 cycles
LLC TOTAL     ACCESS:     103105  HIT:      69746  MISS:      33359
LLC LOAD      ACCESS:      14388  HIT:       5903  MISS:       8485
LLC RFO       ACCESS:       2826  HIT:       1214  MISS:       1612
LLC PREFETCH  ACCESS:      67903  HIT:      45148  MISS:      22755
LLC WRITEBACK ACCESS:      17988  HIT:      17481  MISS:        507
LLC PREFETCH  REQUESTED:          0  ISSUED:          0  USEFUL:       2115  USELESS:      20474
LLC AVERAGE MISS LATENCY: 185.25 cycles
Major fault: 0 Minor fault: 2781
CPU 0 L1I next line prefetcher final stats
CPU 0 L1D next line prefetcher final stats

DRAM Statistics
 CHANNEL 0
 RQ ROW_BUFFER_HIT:       2664  ROW_BUFFER_MISS:      30188
 DBUS_CONGESTED:      17684
 WQ ROW_BUFFER_HIT:        731  ROW_BUFFER_MISS:      13389  FULL:          0

 AVG_CONGESTED_CYCLE: 4

CPU 0 Branch Prediction Accuracy: 93.9974% MPKI: 10.2447 Average ROB Occupancy at Mispredict: 37.1643

Branch types
NOT_BRANCH: 41466058 82.9321%
BRANCH_DIRECT_JUMP: 464313 0.928626%
BRANCH_INDIRECT: 32 6.4e-05%
BRANCH_CONDITIONAL: 7069453 14.1389%
BRANCH_DIRECT_CALL: 499587 0.999174%
BRANCH_INDIRECT_CALL: 342 0.000684%
BRANCH_RETURN: 499906 0.999812%
BRANCH_OTHER: 0 0%

