Initialize SIGNATURE TABLE
ST_SET: 1
ST_WAY: 256
ST_TAG_BIT: 16
ST_TAG_MASK: ffff

Initialize PATTERN TABLE
PT_SET: 512
PT_WAY: 4
SIG_DELTA_BIT: 7
C_SIG_BIT: 4
C_DELTA_BIT: 4

Initialize PREFETCH FILTER
FILTER_SET: 1024

*** ChampSim Multicore Out-of-Order Simulator ***

Warmup Instructions: 50000000
Simulation Instructions: 50000000
Number of CPUs: 1
LLC sets: 2048
LLC ways: 16
Off-chip DRAM Size: 4096 MB Channels: 1 Width: 64-bit Data Rate: 3200 MT/s

CPU 0 runs /home/jen/CompArch/ChampSim/spec_gobmk_002.champsimtrace.xz
CPU 0 Temporal Ancestry L1I prefetcher
CPU 0 L1D next line prefetcher
Heartbeat CPU 0 instructions: 10000001 cycles: 3287804 heartbeat IPC: 3.04154 cumulative IPC: 3.04154 (Simulation time: 0 hr 0 min 32 sec) 
Heartbeat CPU 0 instructions: 20000000 cycles: 6619844 heartbeat IPC: 3.00116 cumulative IPC: 3.02122 (Simulation time: 0 hr 1 min 29 sec) 
Heartbeat CPU 0 instructions: 30000000 cycles: 9958134 heartbeat IPC: 2.99555 cumulative IPC: 3.01261 (Simulation time: 0 hr 2 min 26 sec) 
Heartbeat CPU 0 instructions: 40000000 cycles: 13267763 heartbeat IPC: 3.02149 cumulative IPC: 3.01483 (Simulation time: 0 hr 3 min 27 sec) 
Heartbeat CPU 0 instructions: 50000003 cycles: 16531421 heartbeat IPC: 3.06405 cumulative IPC: 3.02454 (Simulation time: 0 hr 4 min 28 sec) 

Warmup complete CPU 0 instructions: 50000003 cycles: 16531421 (Simulation time: 0 hr 4 min 28 sec) 

Heartbeat CPU 0 instructions: 60000003 cycles: 24195934 heartbeat IPC: 1.30471 cumulative IPC: 1.30471 (Simulation time: 0 hr 5 min 16 sec) 
Heartbeat CPU 0 instructions: 70000001 cycles: 31758751 heartbeat IPC: 1.32226 cumulative IPC: 1.31343 (Simulation time: 0 hr 6 min 0 sec) 
Heartbeat CPU 0 instructions: 80000002 cycles: 39162258 heartbeat IPC: 1.35071 cumulative IPC: 1.32562 (Simulation time: 0 hr 6 min 50 sec) 
Heartbeat CPU 0 instructions: 90000003 cycles: 46839259 heartbeat IPC: 1.30259 cumulative IPC: 1.31979 (Simulation time: 0 hr 7 min 34 sec) 
Heartbeat CPU 0 instructions: 100000003 cycles: 54919939 heartbeat IPC: 1.23752 cumulative IPC: 1.30247 (Simulation time: 0 hr 8 min 19 sec) 
Finished CPU 0 instructions: 50000000 cycles: 38388518 cumulative IPC: 1.30247 (Simulation time: 0 hr 8 min 19 sec) 

ChampSim completed all CPUs

Region of Interest Statistics

CPU 0 cumulative IPC: 1.30247 instructions: 50000000 cycles: 38388518
L1D TOTAL     ACCESS:   17753286  HIT:   17630160  MISS:     123126
L1D LOAD      ACCESS:    6721552  HIT:    6687271  MISS:      34281
L1D RFO       ACCESS:    4389584  HIT:    4346928  MISS:      42656
L1D PREFETCH  ACCESS:    6642150  HIT:    6595961  MISS:      46189
L1D WRITEBACK ACCESS:          0  HIT:          0  MISS:          0
L1D PREFETCH  REQUESTED:    6723949  ISSUED:    6656425  USEFUL:      17130  USELESS:      29240
L1D AVERAGE MISS LATENCY: 54.1593 cycles
L1I TOTAL     ACCESS:   14866021  HIT:    9873689  MISS:    4992332
L1I LOAD      ACCESS:    9013579  HIT:    8819094  MISS:     194485
L1I RFO       ACCESS:          0  HIT:          0  MISS:          0
L1I PREFETCH  ACCESS:    5852442  HIT:    1054595  MISS:    4797847
L1I WRITEBACK ACCESS:          0  HIT:          0  MISS:          0
L1I PREFETCH  REQUESTED:   11528604  ISSUED:   11523316  USEFUL:    1628403  USELESS:    3169476
L1I AVERAGE MISS LATENCY: 14.4211 cycles
L2C TOTAL     ACCESS:    5427049  HIT:    5384125  MISS:      42924
L2C LOAD      ACCESS:     156045  HIT:     141944  MISS:      14101
L2C RFO       ACCESS:      42533  HIT:      39022  MISS:       3511
L2C PREFETCH  ACCESS:    5154264  HIT:    5129353  MISS:      24911
L2C WRITEBACK ACCESS:      74207  HIT:      73806  MISS:        401
L2C PREFETCH  REQUESTED:     362371  ISSUED:     362370  USEFUL:       2657  USELESS:      22099
L2C AVERAGE MISS LATENCY: 126.641 cycles
LLC TOTAL     ACCESS:      93495  HIT:      63959  MISS:      29536
LLC LOAD      ACCESS:      14101  HIT:       5320  MISS:       8781
LLC RFO       ACCESS:       3511  HIT:       1856  MISS:       1655
LLC PREFETCH  ACCESS:      56703  HIT:      38130  MISS:      18573
LLC WRITEBACK ACCESS:      19180  HIT:      18653  MISS:        527
LLC PREFETCH  REQUESTED:          0  ISSUED:          0  USEFUL:       1376  USELESS:      16992
LLC AVERAGE MISS LATENCY: 181.535 cycles
Major fault: 0 Minor fault: 2781
CPU 0 L1D next line prefetcher final stats

DRAM Statistics
 CHANNEL 0
 RQ ROW_BUFFER_HIT:       2287  ROW_BUFFER_MISS:      26722
 DBUS_CONGESTED:      12594
 WQ ROW_BUFFER_HIT:        832  ROW_BUFFER_MISS:      12438  FULL:          0

 AVG_CONGESTED_CYCLE: 4

CPU 0 Branch Prediction Accuracy: 93.9974% MPKI: 10.2447 Average ROB Occupancy at Mispredict: 37.9811

Branch types
NOT_BRANCH: 41466058 82.9321%
BRANCH_DIRECT_JUMP: 464313 0.928626%
BRANCH_INDIRECT: 32 6.4e-05%
BRANCH_CONDITIONAL: 7069455 14.1389%
BRANCH_DIRECT_CALL: 499587 0.999174%
BRANCH_INDIRECT_CALL: 342 0.000684%
BRANCH_RETURN: 499906 0.999812%
BRANCH_OTHER: 0 0%

