Initialize SIGNATURE TABLE
ST_SET: 1
ST_WAY: 256
ST_TAG_BIT: 16
ST_TAG_MASK: ffff

Initialize PATTERN TABLE
PT_SET: 512
PT_WAY: 4
SIG_DELTA_BIT: 7
C_SIG_BIT: 4
C_DELTA_BIT: 4

Initialize PREFETCH FILTER
FILTER_SET: 1024

*** ChampSim Multicore Out-of-Order Simulator ***

Warmup Instructions: 50000000
Simulation Instructions: 50000000
Number of CPUs: 1
LLC sets: 2048
LLC ways: 16
Off-chip DRAM Size: 4096 MB Channels: 1 Width: 64-bit Data Rate: 3200 MT/s

CPU 0 runs /home/jen/CompArch/ChampSim/spec_gobmk_002.champsimtrace.xz
CPU 0 Temporal Ancestry L1I prefetcher
CPU 0 L1D next line prefetcher
Heartbeat CPU 0 instructions: 10000001 cycles: 3287894 heartbeat IPC: 3.04146 cumulative IPC: 3.04146 (Simulation time: 0 hr 0 min 39 sec) 
Heartbeat CPU 0 instructions: 20000000 cycles: 6619996 heartbeat IPC: 3.00111 cumulative IPC: 3.02115 (Simulation time: 0 hr 1 min 40 sec) 
Heartbeat CPU 0 instructions: 30000000 cycles: 9958235 heartbeat IPC: 2.99559 cumulative IPC: 3.01258 (Simulation time: 0 hr 2 min 45 sec) 
Heartbeat CPU 0 instructions: 40000000 cycles: 13267830 heartbeat IPC: 3.02152 cumulative IPC: 3.01481 (Simulation time: 0 hr 3 min 49 sec) 
Heartbeat CPU 0 instructions: 50000003 cycles: 16531477 heartbeat IPC: 3.06406 cumulative IPC: 3.02453 (Simulation time: 0 hr 4 min 50 sec) 

Warmup complete CPU 0 instructions: 50000003 cycles: 16531477 (Simulation time: 0 hr 4 min 50 sec) 

Heartbeat CPU 0 instructions: 60000003 cycles: 23952815 heartbeat IPC: 1.34747 cumulative IPC: 1.34747 (Simulation time: 0 hr 5 min 39 sec) 
Heartbeat CPU 0 instructions: 70000003 cycles: 31305607 heartbeat IPC: 1.36003 cumulative IPC: 1.35372 (Simulation time: 0 hr 6 min 29 sec) 
Heartbeat CPU 0 instructions: 80000000 cycles: 38519328 heartbeat IPC: 1.38625 cumulative IPC: 1.36439 (Simulation time: 0 hr 7 min 18 sec) 
Heartbeat CPU 0 instructions: 90000001 cycles: 46045031 heartbeat IPC: 1.32878 cumulative IPC: 1.35531 (Simulation time: 0 hr 8 min 6 sec) 
Heartbeat CPU 0 instructions: 100000003 cycles: 53884132 heartbeat IPC: 1.27566 cumulative IPC: 1.33859 (Simulation time: 0 hr 8 min 57 sec) 
Finished CPU 0 instructions: 50000000 cycles: 37352655 cumulative IPC: 1.33859 (Simulation time: 0 hr 8 min 57 sec) 

ChampSim completed all CPUs

Region of Interest Statistics

CPU 0 cumulative IPC: 1.33859 instructions: 50000000 cycles: 37352655
L1D TOTAL     ACCESS:   17667595  HIT:   17544491  MISS:     123104
L1D LOAD      ACCESS:    6679622  HIT:    6645321  MISS:      34301
L1D RFO       ACCESS:    4387703  HIT:    4345025  MISS:      42678
L1D PREFETCH  ACCESS:    6600270  HIT:    6554145  MISS:      46125
L1D WRITEBACK ACCESS:          0  HIT:          0  MISS:          0
L1D PREFETCH  REQUESTED:    6682097  ISSUED:    6614672  USEFUL:      17079  USELESS:      29228
L1D AVERAGE MISS LATENCY: 54.8075 cycles
L1I TOTAL     ACCESS:   14665299  HIT:    9751513  MISS:    4913786
L1I LOAD      ACCESS:    8977256  HIT:    8915102  MISS:      62154
L1I RFO       ACCESS:          0  HIT:          0  MISS:          0
L1I PREFETCH  ACCESS:    5688043  HIT:     836411  MISS:    4851632
L1I WRITEBACK ACCESS:          0  HIT:          0  MISS:          0
L1I PREFETCH  REQUESTED:   11184637  ISSUED:   11178950  USEFUL:    1753257  USELESS:    3098401
L1I AVERAGE MISS LATENCY: 14.5716 cycles
L2C TOTAL     ACCESS:    5357486  HIT:    5310685  MISS:      46801
L2C LOAD      ACCESS:      62389  HIT:      48363  MISS:      14026
L2C RFO       ACCESS:      42532  HIT:      38584  MISS:       3948
L2C PREFETCH  ACCESS:    5178361  HIT:    5150119  MISS:      28242
L2C WRITEBACK ACCESS:      74204  HIT:      73619  MISS:        585
L2C PREFETCH  REQUESTED:     364331  ISSUED:     364331  USEFUL:       2613  USELESS:      25292
L2C AVERAGE MISS LATENCY: 121.341 cycles
LLC TOTAL     ACCESS:      97064  HIT:      66986  MISS:      30078
LLC LOAD      ACCESS:      14026  HIT:       5262  MISS:       8764
LLC RFO       ACCESS:       3948  HIT:       2298  MISS:       1650
LLC PREFETCH  ACCESS:      59181  HIT:      40018  MISS:      19163
LLC WRITEBACK ACCESS:      19909  HIT:      19408  MISS:        501
LLC PREFETCH  REQUESTED:          0  ISSUED:          0  USEFUL:       1426  USELESS:      17498
LLC AVERAGE MISS LATENCY: 183.797 cycles
Major fault: 0 Minor fault: 2781
CPU 0 L1D next line prefetcher final stats

DRAM Statistics
 CHANNEL 0
 RQ ROW_BUFFER_HIT:       2287  ROW_BUFFER_MISS:      27290
 DBUS_CONGESTED:      12833
 WQ ROW_BUFFER_HIT:        798  ROW_BUFFER_MISS:      12797  FULL:          0

 AVG_CONGESTED_CYCLE: 4

CPU 0 Branch Prediction Accuracy: 93.9974% MPKI: 10.2447 Average ROB Occupancy at Mispredict: 39.6164

Branch types
NOT_BRANCH: 41466063 82.9321%
BRANCH_DIRECT_JUMP: 464313 0.928626%
BRANCH_INDIRECT: 32 6.4e-05%
BRANCH_CONDITIONAL: 7069455 14.1389%
BRANCH_DIRECT_CALL: 499587 0.999174%
BRANCH_INDIRECT_CALL: 342 0.000684%
BRANCH_RETURN: 499906 0.999812%
BRANCH_OTHER: 0 0%

