Initialize SIGNATURE TABLE
ST_SET: 1
ST_WAY: 256
ST_TAG_BIT: 16
ST_TAG_MASK: ffff

Initialize PATTERN TABLE
PT_SET: 512
PT_WAY: 4
SIG_DELTA_BIT: 7
C_SIG_BIT: 4
C_DELTA_BIT: 4

Initialize PREFETCH FILTER
FILTER_SET: 1024

*** ChampSim Multicore Out-of-Order Simulator ***

Warmup Instructions: 50000000
Simulation Instructions: 50000000
Number of CPUs: 1
LLC sets: 2048
LLC ways: 16
Off-chip DRAM Size: 4096 MB Channels: 1 Width: 64-bit Data Rate: 3200 MT/s

CPU 0 runs /home/jen/CompArch/ChampSim/spec_gobmk_001.champsimtrace.xz
CPU 0 Temporal Ancestry L1I prefetcher
CPU 0 L1D next line prefetcher
Heartbeat CPU 0 instructions: 10000003 cycles: 3507562 heartbeat IPC: 2.85098 cumulative IPC: 2.85098 (Simulation time: 0 hr 0 min 35 sec) 
Heartbeat CPU 0 instructions: 20000002 cycles: 6989480 heartbeat IPC: 2.87198 cumulative IPC: 2.86144 (Simulation time: 0 hr 1 min 17 sec) 
Heartbeat CPU 0 instructions: 30000002 cycles: 10510703 heartbeat IPC: 2.83992 cumulative IPC: 2.85423 (Simulation time: 0 hr 2 min 8 sec) 
Heartbeat CPU 0 instructions: 40000001 cycles: 14032262 heartbeat IPC: 2.83965 cumulative IPC: 2.85057 (Simulation time: 0 hr 2 min 59 sec) 
Heartbeat CPU 0 instructions: 50000001 cycles: 17574501 heartbeat IPC: 2.82307 cumulative IPC: 2.84503 (Simulation time: 0 hr 3 min 52 sec) 

Warmup complete CPU 0 instructions: 50000001 cycles: 17574501 (Simulation time: 0 hr 3 min 52 sec) 

Heartbeat CPU 0 instructions: 60000000 cycles: 26412645 heartbeat IPC: 1.13146 cumulative IPC: 1.13146 (Simulation time: 0 hr 4 min 35 sec) 
Heartbeat CPU 0 instructions: 70000002 cycles: 34876267 heartbeat IPC: 1.18153 cumulative IPC: 1.15595 (Simulation time: 0 hr 5 min 17 sec) 
Heartbeat CPU 0 instructions: 80000003 cycles: 43744172 heartbeat IPC: 1.12766 cumulative IPC: 1.14637 (Simulation time: 0 hr 5 min 59 sec) 
Heartbeat CPU 0 instructions: 90000001 cycles: 52296395 heartbeat IPC: 1.16929 cumulative IPC: 1.15201 (Simulation time: 0 hr 6 min 41 sec) 
Heartbeat CPU 0 instructions: 100000003 cycles: 61162446 heartbeat IPC: 1.1279 cumulative IPC: 1.14711 (Simulation time: 0 hr 7 min 24 sec) 
Finished CPU 0 instructions: 50000002 cycles: 43587945 cumulative IPC: 1.14711 (Simulation time: 0 hr 7 min 24 sec) 

ChampSim completed all CPUs

Region of Interest Statistics

CPU 0 cumulative IPC: 1.14711 instructions: 50000002 cycles: 43587945
L1D TOTAL     ACCESS:   18028352  HIT:   17648870  MISS:     379482
L1D LOAD      ACCESS:    7233046  HIT:    7098889  MISS:     134157
L1D RFO       ACCESS:    3701398  HIT:    3596840  MISS:     104558
L1D PREFETCH  ACCESS:    7093908  HIT:    6953141  MISS:     140767
L1D WRITEBACK ACCESS:          0  HIT:          0  MISS:          0
L1D PREFETCH  REQUESTED:    7238749  ISSUED:    7156028  USEFUL:      46090  USELESS:      94682
L1D AVERAGE MISS LATENCY: 35.6492 cycles
L1I TOTAL     ACCESS:   13407651  HIT:    9676115  MISS:    3731536
L1I LOAD      ACCESS:    9051171  HIT:    8998788  MISS:      52383
L1I RFO       ACCESS:          0  HIT:          0  MISS:          0
L1I PREFETCH  ACCESS:    4356480  HIT:     677327  MISS:    3679153
L1I WRITEBACK ACCESS:          0  HIT:          0  MISS:          0
L1I PREFETCH  REQUESTED:    8664360  ISSUED:    8656871  USEFUL:    1267881  USELESS:    2411302
L1I AVERAGE MISS LATENCY: 14.9884 cycles
L2C TOTAL     ACCESS:    4514249  HIT:    4357645  MISS:     156604
L2C LOAD      ACCESS:     134399  HIT:      96176  MISS:      38223
L2C RFO       ACCESS:     104197  HIT:      67744  MISS:      36453
L2C PREFETCH  ACCESS:    4136366  HIT:    4054662  MISS:      81704
L2C WRITEBACK ACCESS:     139287  HIT:     139063  MISS:        224
L2C PREFETCH  REQUESTED:     417278  ISSUED:     417270  USEFUL:       5281  USELESS:      76593
L2C AVERAGE MISS LATENCY: 60.9756 cycles
LLC TOTAL     ACCESS:     260534  HIT:     228233  MISS:      32301
LLC LOAD      ACCESS:      38221  HIT:      29841  MISS:       8380
LLC RFO       ACCESS:      36453  HIT:      29765  MISS:       6688
LLC PREFETCH  ACCESS:     137703  HIT:     120658  MISS:      17045
LLC WRITEBACK ACCESS:      48157  HIT:      47969  MISS:        188
LLC PREFETCH  REQUESTED:          0  ISSUED:          0  USEFUL:        966  USELESS:      15091
LLC AVERAGE MISS LATENCY: 180.09 cycles
Major fault: 0 Minor fault: 4161
CPU 0 L1D next line prefetcher final stats

DRAM Statistics
 CHANNEL 0
 RQ ROW_BUFFER_HIT:       4245  ROW_BUFFER_MISS:      27867
 DBUS_CONGESTED:      15362
 WQ ROW_BUFFER_HIT:       1342  ROW_BUFFER_MISS:      14225  FULL:          0

 AVG_CONGESTED_CYCLE: 4

CPU 0 Branch Prediction Accuracy: 94.7729% MPKI: 9.72684 Average ROB Occupancy at Mispredict: 53.6212

Branch types
NOT_BRANCH: 40695396 81.3908%
BRANCH_DIRECT_JUMP: 422107 0.844214%
BRANCH_INDIRECT: 65 0.00013%
BRANCH_CONDITIONAL: 8105005 16.21%
BRANCH_DIRECT_CALL: 374913 0.749826%
BRANCH_INDIRECT_CALL: 13657 0.027314%
BRANCH_RETURN: 388556 0.777112%
BRANCH_OTHER: 0 0%

