Initialize SIGNATURE TABLE
ST_SET: 1
ST_WAY: 256
ST_TAG_BIT: 16
ST_TAG_MASK: ffff

Initialize PATTERN TABLE
PT_SET: 512
PT_WAY: 4
SIG_DELTA_BIT: 7
C_SIG_BIT: 4
C_DELTA_BIT: 4

Initialize PREFETCH FILTER
FILTER_SET: 1024

*** ChampSim Multicore Out-of-Order Simulator ***

Warmup Instructions: 50000000
Simulation Instructions: 50000000
Number of CPUs: 1
LLC sets: 2048
LLC ways: 16
Off-chip DRAM Size: 4096 MB Channels: 1 Width: 64-bit Data Rate: 3200 MT/s

CPU 0 runs /home/jen/CompArch/ChampSim/spec_gobmk_002.champsimtrace.xz
CPU 0 Temporal Ancestry L1I prefetcher
CPU 0 L1D next line prefetcher
Heartbeat CPU 0 instructions: 10000001 cycles: 3287609 heartbeat IPC: 3.04172 cumulative IPC: 3.04172 (Simulation time: 0 hr 0 min 46 sec) 
Heartbeat CPU 0 instructions: 20000000 cycles: 6619497 heartbeat IPC: 3.0013 cumulative IPC: 3.02138 (Simulation time: 0 hr 2 min 36 sec) 
Heartbeat CPU 0 instructions: 30000000 cycles: 9957653 heartbeat IPC: 2.99567 cumulative IPC: 3.01276 (Simulation time: 0 hr 4 min 22 sec) 
Heartbeat CPU 0 instructions: 40000000 cycles: 13267186 heartbeat IPC: 3.02157 cumulative IPC: 3.01496 (Simulation time: 0 hr 6 min 1 sec) 
Heartbeat CPU 0 instructions: 50000003 cycles: 16530767 heartbeat IPC: 3.06412 cumulative IPC: 3.02466 (Simulation time: 0 hr 7 min 39 sec) 

Warmup complete CPU 0 instructions: 50000003 cycles: 16530767 (Simulation time: 0 hr 7 min 39 sec) 

Heartbeat CPU 0 instructions: 60000003 cycles: 23907823 heartbeat IPC: 1.35555 cumulative IPC: 1.35555 (Simulation time: 0 hr 8 min 56 sec) 
Heartbeat CPU 0 instructions: 70000003 cycles: 31225451 heartbeat IPC: 1.36656 cumulative IPC: 1.36104 (Simulation time: 0 hr 10 min 14 sec) 
Heartbeat CPU 0 instructions: 80000000 cycles: 38404958 heartbeat IPC: 1.39285 cumulative IPC: 1.37148 (Simulation time: 0 hr 11 min 32 sec) 
Heartbeat CPU 0 instructions: 90000001 cycles: 45901052 heartbeat IPC: 1.33403 cumulative IPC: 1.36192 (Simulation time: 0 hr 12 min 48 sec) 
Heartbeat CPU 0 instructions: 100000003 cycles: 53660155 heartbeat IPC: 1.28881 cumulative IPC: 1.34664 (Simulation time: 0 hr 14 min 13 sec) 
Finished CPU 0 instructions: 50000000 cycles: 37129388 cumulative IPC: 1.34664 (Simulation time: 0 hr 14 min 13 sec) 

ChampSim completed all CPUs

Region of Interest Statistics

CPU 0 cumulative IPC: 1.34664 instructions: 50000000 cycles: 37129388
L1D TOTAL     ACCESS:   17637935  HIT:   17514816  MISS:     123119
L1D LOAD      ACCESS:    6664965  HIT:    6630671  MISS:      34294
L1D RFO       ACCESS:    4387376  HIT:    4344705  MISS:      42671
L1D PREFETCH  ACCESS:    6585594  HIT:    6539440  MISS:      46154
L1D WRITEBACK ACCESS:          0  HIT:          0  MISS:          0
L1D PREFETCH  REQUESTED:    6667419  ISSUED:    6600004  USEFUL:      17089  USELESS:      29247
L1D AVERAGE MISS LATENCY: 54.3277 cycles
L1I TOTAL     ACCESS:   13547402  HIT:    9613296  MISS:    3934106
L1I LOAD      ACCESS:    8941768  HIT:    8892992  MISS:      48776
L1I RFO       ACCESS:          0  HIT:          0  MISS:          0
L1I PREFETCH  ACCESS:    4605634  HIT:     720304  MISS:    3885330
L1I WRITEBACK ACCESS:          0  HIT:          0  MISS:          0
L1I PREFETCH  REQUESTED:    9337049  ISSUED:    9335811  USEFUL:    1578462  USELESS:    2306918
L1I AVERAGE MISS LATENCY: 14.5403 cycles
L2C TOTAL     ACCESS:    4342907  HIT:    4298894  MISS:      44013
L2C LOAD      ACCESS:      51957  HIT:      38394  MISS:      13563
L2C RFO       ACCESS:      42534  HIT:      39038  MISS:       3496
L2C PREFETCH  ACCESS:    4174215  HIT:    4147637  MISS:      26578
L2C WRITEBACK ACCESS:      74201  HIT:      73825  MISS:        376
L2C PREFETCH  REQUESTED:     293573  ISSUED:     293573  USEFUL:       2516  USELESS:      23969
L2C AVERAGE MISS LATENCY: 125.879 cycles
LLC TOTAL     ACCESS:      86835  HIT:      57200  MISS:      29635
LLC LOAD      ACCESS:      13563  HIT:       4875  MISS:       8688
LLC RFO       ACCESS:       3496  HIT:       1832  MISS:       1664
LLC PREFETCH  ACCESS:      50649  HIT:      31874  MISS:      18775
LLC WRITEBACK ACCESS:      19127  HIT:      18619  MISS:        508
LLC PREFETCH  REQUESTED:          0  ISSUED:          0  USEFUL:       1400  USELESS:      17183
LLC AVERAGE MISS LATENCY: 183.365 cycles
Major fault: 0 Minor fault: 2781
CPU 0 L1D next line prefetcher final stats

DRAM Statistics
 CHANNEL 0
 RQ ROW_BUFFER_HIT:       2292  ROW_BUFFER_MISS:      26835
 DBUS_CONGESTED:      12587
 WQ ROW_BUFFER_HIT:        792  ROW_BUFFER_MISS:      12537  FULL:          0

 AVG_CONGESTED_CYCLE: 4

CPU 0 Branch Prediction Accuracy: 93.9974% MPKI: 10.2447 Average ROB Occupancy at Mispredict: 40.1962

Branch types
NOT_BRANCH: 41466063 82.9321%
BRANCH_DIRECT_JUMP: 464313 0.928626%
BRANCH_INDIRECT: 32 6.4e-05%
BRANCH_CONDITIONAL: 7069455 14.1389%
BRANCH_DIRECT_CALL: 499587 0.999174%
BRANCH_INDIRECT_CALL: 342 0.000684%
BRANCH_RETURN: 499906 0.999812%
BRANCH_OTHER: 0 0%

