Initialize SIGNATURE TABLE
ST_SET: 1
ST_WAY: 256
ST_TAG_BIT: 16
ST_TAG_MASK: ffff

Initialize PATTERN TABLE
PT_SET: 512
PT_WAY: 4
SIG_DELTA_BIT: 7
C_SIG_BIT: 4
C_DELTA_BIT: 4

Initialize PREFETCH FILTER
FILTER_SET: 1024

*** ChampSim Multicore Out-of-Order Simulator ***

Warmup Instructions: 50000000
Simulation Instructions: 50000000
Number of CPUs: 1
LLC sets: 2048
LLC ways: 16
Off-chip DRAM Size: 4096 MB Channels: 1 Width: 64-bit Data Rate: 3200 MT/s

CPU 0 runs /home/jen/CompArch/ChampSim/spec_gobmk_002.champsimtrace.xz
CPU 0 Temporal Ancestry L1I prefetcher
CPU 0 L1D next line prefetcher
Heartbeat CPU 0 instructions: 10000001 cycles: 3287506 heartbeat IPC: 3.04182 cumulative IPC: 3.04182 (Simulation time: 0 hr 0 min 41 sec) 
Heartbeat CPU 0 instructions: 20000000 cycles: 6619269 heartbeat IPC: 3.00141 cumulative IPC: 3.02148 (Simulation time: 0 hr 2 min 26 sec) 
Heartbeat CPU 0 instructions: 30000000 cycles: 9957321 heartbeat IPC: 2.99576 cumulative IPC: 3.01286 (Simulation time: 0 hr 4 min 16 sec) 
Heartbeat CPU 0 instructions: 40000000 cycles: 13266791 heartbeat IPC: 3.02163 cumulative IPC: 3.01505 (Simulation time: 0 hr 6 min 9 sec) 
Heartbeat CPU 0 instructions: 50000003 cycles: 16530360 heartbeat IPC: 3.06413 cumulative IPC: 3.02474 (Simulation time: 0 hr 7 min 53 sec) 

Warmup complete CPU 0 instructions: 50000003 cycles: 16530360 (Simulation time: 0 hr 7 min 53 sec) 

Heartbeat CPU 0 instructions: 60000003 cycles: 23888705 heartbeat IPC: 1.359 cumulative IPC: 1.359 (Simulation time: 0 hr 9 min 4 sec) 
Heartbeat CPU 0 instructions: 70000003 cycles: 31181597 heartbeat IPC: 1.3712 cumulative IPC: 1.36507 (Simulation time: 0 hr 10 min 16 sec) 
Heartbeat CPU 0 instructions: 80000000 cycles: 38342695 heartbeat IPC: 1.39643 cumulative IPC: 1.37537 (Simulation time: 0 hr 11 min 28 sec) 
Heartbeat CPU 0 instructions: 90000001 cycles: 45820370 heartbeat IPC: 1.33731 cumulative IPC: 1.36565 (Simulation time: 0 hr 12 min 39 sec) 
Heartbeat CPU 0 instructions: 100000003 cycles: 53546667 heartbeat IPC: 1.29428 cumulative IPC: 1.35076 (Simulation time: 0 hr 13 min 59 sec) 
Finished CPU 0 instructions: 50000000 cycles: 37016307 cumulative IPC: 1.35076 (Simulation time: 0 hr 13 min 59 sec) 

ChampSim completed all CPUs

Region of Interest Statistics

CPU 0 cumulative IPC: 1.35076 instructions: 50000000 cycles: 37016307
L1D TOTAL     ACCESS:   17625009  HIT:   17501891  MISS:     123118
L1D LOAD      ACCESS:    6658544  HIT:    6624259  MISS:      34285
L1D RFO       ACCESS:    4387354  HIT:    4344672  MISS:      42682
L1D PREFETCH  ACCESS:    6579111  HIT:    6532960  MISS:      46151
L1D WRITEBACK ACCESS:          0  HIT:          0  MISS:          0
L1D PREFETCH  REQUESTED:    6661011  ISSUED:    6593579  USEFUL:      17094  USELESS:      29238
L1D AVERAGE MISS LATENCY: 53.4855 cycles
L1I TOTAL     ACCESS:   12929110  HIT:    9517452  MISS:    3411658
L1I LOAD      ACCESS:    8919294  HIT:    8875882  MISS:      43412
L1I RFO       ACCESS:          0  HIT:          0  MISS:          0
L1I PREFETCH  ACCESS:    4009816  HIT:     641570  MISS:    3368246
L1I WRITEBACK ACCESS:          0  HIT:          0  MISS:          0
L1I PREFETCH  REQUESTED:    8130839  ISSUED:    8130290  USEFUL:    1461968  USELESS:    1906315
L1I AVERAGE MISS LATENCY: 14.5113 cycles
L2C TOTAL     ACCESS:    3779446  HIT:    3737919  MISS:      41527
L2C LOAD      ACCESS:      49355  HIT:      36123  MISS:      13232
L2C RFO       ACCESS:      42537  HIT:      39264  MISS:       3273
L2C PREFETCH  ACCESS:    3613348  HIT:    3588635  MISS:      24713
L2C WRITEBACK ACCESS:      74206  HIT:      73897  MISS:        309
L2C PREFETCH  REQUESTED:     225555  ISSUED:     225555  USEFUL:       2449  USELESS:      22389
L2C AVERAGE MISS LATENCY: 127.62 cycles
LLC TOTAL     ACCESS:      79388  HIT:      50496  MISS:      28892
LLC LOAD      ACCESS:      13232  HIT:       4580  MISS:       8652
LLC RFO       ACCESS:       3273  HIT:       1613  MISS:       1660
LLC PREFETCH  ACCESS:      44219  HIT:      26120  MISS:      18099
LLC WRITEBACK ACCESS:      18664  HIT:      18183  MISS:        481
LLC PREFETCH  REQUESTED:          0  ISSUED:          0  USEFUL:       1398  USELESS:      16686
LLC AVERAGE MISS LATENCY: 180.769 cycles
Major fault: 0 Minor fault: 2781
CPU 0 L1D next line prefetcher final stats

DRAM Statistics
 CHANNEL 0
 RQ ROW_BUFFER_HIT:       2369  ROW_BUFFER_MISS:      26041
 DBUS_CONGESTED:      12448
 WQ ROW_BUFFER_HIT:        760  ROW_BUFFER_MISS:      12161  FULL:          0

 AVG_CONGESTED_CYCLE: 4

CPU 0 Branch Prediction Accuracy: 93.9974% MPKI: 10.2447 Average ROB Occupancy at Mispredict: 40.3987

Branch types
NOT_BRANCH: 41466063 82.9321%
BRANCH_DIRECT_JUMP: 464313 0.928626%
BRANCH_INDIRECT: 32 6.4e-05%
BRANCH_CONDITIONAL: 7069455 14.1389%
BRANCH_DIRECT_CALL: 499587 0.999174%
BRANCH_INDIRECT_CALL: 342 0.000684%
BRANCH_RETURN: 499906 0.999812%
BRANCH_OTHER: 0 0%

