Initialize SIGNATURE TABLE
ST_SET: 1
ST_WAY: 256
ST_TAG_BIT: 16
ST_TAG_MASK: ffff

Initialize PATTERN TABLE
PT_SET: 512
PT_WAY: 4
SIG_DELTA_BIT: 7
C_SIG_BIT: 4
C_DELTA_BIT: 4

Initialize PREFETCH FILTER
FILTER_SET: 1024

*** ChampSim Multicore Out-of-Order Simulator ***

Warmup Instructions: 50000000
Simulation Instructions: 50000000
Number of CPUs: 1
LLC sets: 2048
LLC ways: 16
Off-chip DRAM Size: 4096 MB Channels: 1 Width: 64-bit Data Rate: 3200 MT/s

CPU 0 runs /home/jen/CompArch/ChampSim/spec_gobmk_001.champsimtrace.xz
CPU 0 Temporal Ancestry L1I prefetcher
CPU 0 L1D next line prefetcher
Heartbeat CPU 0 instructions: 10000003 cycles: 3507605 heartbeat IPC: 2.85095 cumulative IPC: 2.85095 (Simulation time: 0 hr 0 min 32 sec) 
Heartbeat CPU 0 instructions: 20000002 cycles: 6989670 heartbeat IPC: 2.87186 cumulative IPC: 2.86137 (Simulation time: 0 hr 1 min 14 sec) 
Heartbeat CPU 0 instructions: 30000002 cycles: 10511147 heartbeat IPC: 2.83972 cumulative IPC: 2.85411 (Simulation time: 0 hr 2 min 4 sec) 
Heartbeat CPU 0 instructions: 40000001 cycles: 14032763 heartbeat IPC: 2.83961 cumulative IPC: 2.85047 (Simulation time: 0 hr 2 min 55 sec) 
Heartbeat CPU 0 instructions: 50000001 cycles: 17574838 heartbeat IPC: 2.8232 cumulative IPC: 2.84498 (Simulation time: 0 hr 3 min 46 sec) 

Warmup complete CPU 0 instructions: 50000001 cycles: 17574838 (Simulation time: 0 hr 3 min 46 sec) 

Heartbeat CPU 0 instructions: 60000000 cycles: 26406934 heartbeat IPC: 1.13223 cumulative IPC: 1.13223 (Simulation time: 0 hr 4 min 28 sec) 
Heartbeat CPU 0 instructions: 70000002 cycles: 34865774 heartbeat IPC: 1.1822 cumulative IPC: 1.15668 (Simulation time: 0 hr 5 min 9 sec) 
Heartbeat CPU 0 instructions: 80000003 cycles: 43734463 heartbeat IPC: 1.12756 cumulative IPC: 1.14681 (Simulation time: 0 hr 5 min 50 sec) 
Heartbeat CPU 0 instructions: 90000001 cycles: 52286371 heartbeat IPC: 1.16933 cumulative IPC: 1.15235 (Simulation time: 0 hr 6 min 31 sec) 
Heartbeat CPU 0 instructions: 100000003 cycles: 61146821 heartbeat IPC: 1.12861 cumulative IPC: 1.14753 (Simulation time: 0 hr 7 min 12 sec) 
Finished CPU 0 instructions: 50000002 cycles: 43571983 cumulative IPC: 1.14753 (Simulation time: 0 hr 7 min 12 sec) 

ChampSim completed all CPUs

Region of Interest Statistics

CPU 0 cumulative IPC: 1.14753 instructions: 50000002 cycles: 43571983
L1D TOTAL     ACCESS:   18028454  HIT:   17648953  MISS:     379501
L1D LOAD      ACCESS:    7232977  HIT:    7098742  MISS:     134235
L1D RFO       ACCESS:    3701877  HIT:    3597313  MISS:     104564
L1D PREFETCH  ACCESS:    7093600  HIT:    6952898  MISS:     140702
L1D WRITEBACK ACCESS:          0  HIT:          0  MISS:          0
L1D PREFETCH  REQUESTED:    7238742  ISSUED:    7155984  USEFUL:      46025  USELESS:      94682
L1D AVERAGE MISS LATENCY: 35.5943 cycles
L1I TOTAL     ACCESS:   13481997  HIT:    9760890  MISS:    3721107
L1I LOAD      ACCESS:    9044566  HIT:    8984428  MISS:      60138
L1I RFO       ACCESS:          0  HIT:          0  MISS:          0
L1I PREFETCH  ACCESS:    4437431  HIT:     776462  MISS:    3660969
L1I WRITEBACK ACCESS:          0  HIT:          0  MISS:          0
L1I PREFETCH  REQUESTED:    9446649  ISSUED:    9437300  USEFUL:    1266577  USELESS:    2394431
L1I AVERAGE MISS LATENCY: 14.9084 cycles
L2C TOTAL     ACCESS:    4664098  HIT:    4506284  MISS:     157814
L2C LOAD      ACCESS:     130545  HIT:      92290  MISS:      38255
L2C RFO       ACCESS:     104191  HIT:      67614  MISS:      36577
L2C PREFETCH  ACCESS:    4290075  HIT:    4207314  MISS:      82761
L2C WRITEBACK ACCESS:     139287  HIT:     139066  MISS:        221
L2C PREFETCH  REQUESTED:     664649  ISSUED:     664611  USEFUL:       5086  USELESS:      77839
L2C AVERAGE MISS LATENCY: 60.6251 cycles
LLC TOTAL     ACCESS:     277456  HIT:     244594  MISS:      32862
LLC LOAD      ACCESS:      38253  HIT:      29887  MISS:       8366
LLC RFO       ACCESS:      36576  HIT:      29653  MISS:       6923
LLC PREFETCH  ACCESS:     154285  HIT:     136918  MISS:      17367
LLC WRITEBACK ACCESS:      48342  HIT:      48136  MISS:        206
LLC PREFETCH  REQUESTED:          0  ISSUED:          0  USEFUL:       1039  USELESS:      15425
LLC AVERAGE MISS LATENCY: 179.443 cycles
Major fault: 0 Minor fault: 4161
CPU 0 L1D next line prefetcher final stats

DRAM Statistics
 CHANNEL 0
 RQ ROW_BUFFER_HIT:       4495  ROW_BUFFER_MISS:      28159
 DBUS_CONGESTED:      15557
 WQ ROW_BUFFER_HIT:       1378  ROW_BUFFER_MISS:      14454  FULL:          0

 AVG_CONGESTED_CYCLE: 4

CPU 0 Branch Prediction Accuracy: 94.7729% MPKI: 9.72684 Average ROB Occupancy at Mispredict: 53.7466

Branch types
NOT_BRANCH: 40695384 81.3908%
BRANCH_DIRECT_JUMP: 422107 0.844214%
BRANCH_INDIRECT: 65 0.00013%
BRANCH_CONDITIONAL: 8105005 16.21%
BRANCH_DIRECT_CALL: 374913 0.749826%
BRANCH_INDIRECT_CALL: 13657 0.027314%
BRANCH_RETURN: 388556 0.777112%
BRANCH_OTHER: 0 0%

