Initialize SIGNATURE TABLE
ST_SET: 1
ST_WAY: 256
ST_TAG_BIT: 16
ST_TAG_MASK: ffff

Initialize PATTERN TABLE
PT_SET: 512
PT_WAY: 4
SIG_DELTA_BIT: 7
C_SIG_BIT: 4
C_DELTA_BIT: 4

Initialize PREFETCH FILTER
FILTER_SET: 1024

*** ChampSim Multicore Out-of-Order Simulator ***

Warmup Instructions: 50000000
Simulation Instructions: 50000000
Number of CPUs: 1
LLC sets: 2048
LLC ways: 16
Off-chip DRAM Size: 4096 MB Channels: 1 Width: 64-bit Data Rate: 3200 MT/s

CPU 0 runs /home/jen/CompArch/ChampSim/spec_gobmk_001.champsimtrace.xz
CPU 0 Temporal Ancestry L1I prefetcher
CPU 0 L1D next line prefetcher
Heartbeat CPU 0 instructions: 10000003 cycles: 3508178 heartbeat IPC: 2.85048 cumulative IPC: 2.85048 (Simulation time: 0 hr 0 min 27 sec) 
Heartbeat CPU 0 instructions: 20000002 cycles: 6990113 heartbeat IPC: 2.87197 cumulative IPC: 2.86118 (Simulation time: 0 hr 0 min 56 sec) 
Heartbeat CPU 0 instructions: 30000002 cycles: 10511047 heartbeat IPC: 2.84016 cumulative IPC: 2.85414 (Simulation time: 0 hr 1 min 26 sec) 
Heartbeat CPU 0 instructions: 40000001 cycles: 14032145 heartbeat IPC: 2.84002 cumulative IPC: 2.8506 (Simulation time: 0 hr 1 min 56 sec) 
Heartbeat CPU 0 instructions: 50000001 cycles: 17573931 heartbeat IPC: 2.82343 cumulative IPC: 2.84512 (Simulation time: 0 hr 2 min 26 sec) 

Warmup complete CPU 0 instructions: 50000001 cycles: 17573931 (Simulation time: 0 hr 2 min 26 sec) 

Heartbeat CPU 0 instructions: 60000000 cycles: 26515077 heartbeat IPC: 1.11842 cumulative IPC: 1.11842 (Simulation time: 0 hr 2 min 51 sec) 
Heartbeat CPU 0 instructions: 70000002 cycles: 35091361 heartbeat IPC: 1.16601 cumulative IPC: 1.14172 (Simulation time: 0 hr 3 min 17 sec) 
Heartbeat CPU 0 instructions: 80000003 cycles: 44038459 heartbeat IPC: 1.11768 cumulative IPC: 1.13359 (Simulation time: 0 hr 3 min 42 sec) 
Heartbeat CPU 0 instructions: 90000001 cycles: 52653561 heartbeat IPC: 1.16075 cumulative IPC: 1.14026 (Simulation time: 0 hr 4 min 6 sec) 
Heartbeat CPU 0 instructions: 100000000 cycles: 61590109 heartbeat IPC: 1.119 cumulative IPC: 1.13595 (Simulation time: 0 hr 4 min 30 sec) 
Finished CPU 0 instructions: 50000002 cycles: 44016179 cumulative IPC: 1.13595 (Simulation time: 0 hr 4 min 30 sec) 

ChampSim completed all CPUs

Region of Interest Statistics

CPU 0 cumulative IPC: 1.13595 instructions: 50000002 cycles: 44016179
L1D TOTAL     ACCESS:   18071269  HIT:   17691706  MISS:     379563
L1D LOAD      ACCESS:    7253513  HIT:    7118857  MISS:     134656
L1D RFO       ACCESS:    3703431  HIT:    3598919  MISS:     104512
L1D PREFETCH  ACCESS:    7114325  HIT:    6973930  MISS:     140395
L1D WRITEBACK ACCESS:          0  HIT:          0  MISS:          0
L1D PREFETCH  REQUESTED:    7259164  ISSUED:    7176426  USEFUL:      45694  USELESS:      94706
L1D AVERAGE MISS LATENCY: 34.808 cycles
L1I TOTAL     ACCESS:   14391163  HIT:    9817133  MISS:    4574030
L1I LOAD      ACCESS:    9092051  HIT:    8989126  MISS:     102925
L1I RFO       ACCESS:          0  HIT:          0  MISS:          0
L1I PREFETCH  ACCESS:    5299112  HIT:     828007  MISS:    4471105
L1I WRITEBACK ACCESS:          0  HIT:          0  MISS:          0
L1I PREFETCH  REQUESTED:    9623429  ISSUED:    9616402  USEFUL:    1298448  USELESS:    3172680
L1I AVERAGE MISS LATENCY: 14.7295 cycles
L2C TOTAL     ACCESS:    5306526  HIT:    5165128  MISS:     141398
L2C LOAD      ACCESS:     164041  HIT:     125731  MISS:      38310
L2C RFO       ACCESS:     104164  HIT:      68581  MISS:      35583
L2C PREFETCH  ACCESS:    4899023  HIT:    4831658  MISS:      67365
L2C WRITEBACK ACCESS:     139298  HIT:     139158  MISS:        140
L2C PREFETCH  REQUESTED:     319747  ISSUED:     319726  USEFUL:       5262  USELESS:      62160
L2C AVERAGE MISS LATENCY: 62.5107 cycles
LLC TOTAL     ACCESS:     228752  HIT:     199247  MISS:      29505
LLC LOAD      ACCESS:      38308  HIT:      29993  MISS:       8315
LLC RFO       ACCESS:      35583  HIT:      29751  MISS:       5832
LLC PREFETCH  ACCESS:     107843  HIT:      92673  MISS:      15170
LLC WRITEBACK ACCESS:      47018  HIT:      46830  MISS:        188
LLC PREFETCH  REQUESTED:          0  ISSUED:          0  USEFUL:        978  USELESS:      13473
LLC AVERAGE MISS LATENCY: 180.6 cycles
Major fault: 0 Minor fault: 4161
CPU 0 L1D next line prefetcher final stats

DRAM Statistics
 CHANNEL 0
 RQ ROW_BUFFER_HIT:       3771  ROW_BUFFER_MISS:      25546
 DBUS_CONGESTED:      14348
 WQ ROW_BUFFER_HIT:       1218  ROW_BUFFER_MISS:      13197  FULL:          0

 AVG_CONGESTED_CYCLE: 4

CPU 0 Branch Prediction Accuracy: 94.7729% MPKI: 9.72684 Average ROB Occupancy at Mispredict: 52.5838

Branch types
NOT_BRANCH: 40695377 81.3908%
BRANCH_DIRECT_JUMP: 422107 0.844214%
BRANCH_INDIRECT: 65 0.00013%
BRANCH_CONDITIONAL: 8105006 16.21%
BRANCH_DIRECT_CALL: 374912 0.749824%
BRANCH_INDIRECT_CALL: 13657 0.027314%
BRANCH_RETURN: 388556 0.777112%
BRANCH_OTHER: 0 0%

