Initialize SIGNATURE TABLE
ST_SET: 1
ST_WAY: 256
ST_TAG_BIT: 16
ST_TAG_MASK: ffff

Initialize PATTERN TABLE
PT_SET: 512
PT_WAY: 4
SIG_DELTA_BIT: 7
C_SIG_BIT: 4
C_DELTA_BIT: 4

Initialize PREFETCH FILTER
FILTER_SET: 1024

*** ChampSim Multicore Out-of-Order Simulator ***

Warmup Instructions: 50000000
Simulation Instructions: 50000000
Number of CPUs: 1
LLC sets: 2048
LLC ways: 16
Off-chip DRAM Size: 4096 MB Channels: 1 Width: 64-bit Data Rate: 3200 MT/s

CPU 0 runs /home/jen/CompArch/ChampSim/spec_gobmk_001.champsimtrace.xz
CPU 0 Temporal Ancestry L1I prefetcher
CPU 0 L1D next line prefetcher
Heartbeat CPU 0 instructions: 10000003 cycles: 3507487 heartbeat IPC: 2.85104 cumulative IPC: 2.85104 (Simulation time: 0 hr 0 min 33 sec) 
Heartbeat CPU 0 instructions: 20000002 cycles: 6989312 heartbeat IPC: 2.87206 cumulative IPC: 2.86151 (Simulation time: 0 hr 1 min 15 sec) 
Heartbeat CPU 0 instructions: 30000002 cycles: 10510385 heartbeat IPC: 2.84004 cumulative IPC: 2.85432 (Simulation time: 0 hr 2 min 6 sec) 
Heartbeat CPU 0 instructions: 40000001 cycles: 14031758 heartbeat IPC: 2.8398 cumulative IPC: 2.85068 (Simulation time: 0 hr 2 min 58 sec) 
Heartbeat CPU 0 instructions: 50000001 cycles: 17573764 heartbeat IPC: 2.82326 cumulative IPC: 2.84515 (Simulation time: 0 hr 3 min 50 sec) 

Warmup complete CPU 0 instructions: 50000001 cycles: 17573764 (Simulation time: 0 hr 3 min 50 sec) 

Heartbeat CPU 0 instructions: 60000000 cycles: 26407570 heartbeat IPC: 1.13201 cumulative IPC: 1.13201 (Simulation time: 0 hr 4 min 31 sec) 
Heartbeat CPU 0 instructions: 70000002 cycles: 34873270 heartbeat IPC: 1.18124 cumulative IPC: 1.1561 (Simulation time: 0 hr 5 min 13 sec) 
Heartbeat CPU 0 instructions: 80000003 cycles: 43747362 heartbeat IPC: 1.12688 cumulative IPC: 1.14619 (Simulation time: 0 hr 5 min 54 sec) 
Heartbeat CPU 0 instructions: 90000001 cycles: 52300463 heartbeat IPC: 1.16917 cumulative IPC: 1.15185 (Simulation time: 0 hr 6 min 36 sec) 
Heartbeat CPU 0 instructions: 100000003 cycles: 61156886 heartbeat IPC: 1.12912 cumulative IPC: 1.14723 (Simulation time: 0 hr 7 min 17 sec) 
Finished CPU 0 instructions: 50000002 cycles: 43583122 cumulative IPC: 1.14723 (Simulation time: 0 hr 7 min 17 sec) 

ChampSim completed all CPUs

Region of Interest Statistics

CPU 0 cumulative IPC: 1.14723 instructions: 50000002 cycles: 43583122
L1D TOTAL     ACCESS:   18029886  HIT:   17650370  MISS:     379516
L1D LOAD      ACCESS:    7233669  HIT:    7099635  MISS:     134034
L1D RFO       ACCESS:    3701633  HIT:    3597069  MISS:     104564
L1D PREFETCH  ACCESS:    7094584  HIT:    6953666  MISS:     140918
L1D WRITEBACK ACCESS:          0  HIT:          0  MISS:          0
L1D PREFETCH  REQUESTED:    7239346  ISSUED:    7156618  USEFUL:      46231  USELESS:      94692
L1D AVERAGE MISS LATENCY: 35.6146 cycles
L1I TOTAL     ACCESS:   13442617  HIT:    9663223  MISS:    3779394
L1I LOAD      ACCESS:    9051137  HIT:    8996752  MISS:      54385
L1I RFO       ACCESS:          0  HIT:          0  MISS:          0
L1I PREFETCH  ACCESS:    4391480  HIT:     666471  MISS:    3725009
L1I WRITEBACK ACCESS:          0  HIT:          0  MISS:          0
L1I PREFETCH  REQUESTED:    8757415  ISSUED:    8747444  USEFUL:    1273158  USELESS:    2451886
L1I AVERAGE MISS LATENCY: 14.9543 cycles
L2C TOTAL     ACCESS:    4590851  HIT:    4434548  MISS:     156303
L2C LOAD      ACCESS:     134788  HIT:      96398  MISS:      38390
L2C RFO       ACCESS:     104203  HIT:      67770  MISS:      36433
L2C PREFETCH  ACCESS:    4212559  HIT:    4131327  MISS:      81232
L2C WRITEBACK ACCESS:     139301  HIT:     139053  MISS:        248
L2C PREFETCH  REQUESTED:     459451  ISSUED:     459442  USEFUL:       5238  USELESS:      76172
L2C AVERAGE MISS LATENCY: 60.8358 cycles
LLC TOTAL     ACCESS:     260749  HIT:     228138  MISS:      32611
LLC LOAD      ACCESS:      38385  HIT:      30000  MISS:       8385
LLC RFO       ACCESS:      36433  HIT:      29678  MISS:       6755
LLC PREFETCH  ACCESS:     137793  HIT:     120534  MISS:      17259
LLC WRITEBACK ACCESS:      48138  HIT:      47926  MISS:        212
LLC PREFETCH  REQUESTED:          0  ISSUED:          0  USEFUL:        984  USELESS:      15157
LLC AVERAGE MISS LATENCY: 179.485 cycles
Major fault: 0 Minor fault: 4161
CPU 0 L1D next line prefetcher final stats

DRAM Statistics
 CHANNEL 0
 RQ ROW_BUFFER_HIT:       4450  ROW_BUFFER_MISS:      27949
 DBUS_CONGESTED:      15535
 WQ ROW_BUFFER_HIT:       1352  ROW_BUFFER_MISS:      14465  FULL:          0

 AVG_CONGESTED_CYCLE: 4

CPU 0 Branch Prediction Accuracy: 94.7729% MPKI: 9.72684 Average ROB Occupancy at Mispredict: 53.6663

Branch types
NOT_BRANCH: 40695392 81.3908%
BRANCH_DIRECT_JUMP: 422107 0.844214%
BRANCH_INDIRECT: 65 0.00013%
BRANCH_CONDITIONAL: 8105005 16.21%
BRANCH_DIRECT_CALL: 374913 0.749826%
BRANCH_INDIRECT_CALL: 13657 0.027314%
BRANCH_RETURN: 388556 0.777112%
BRANCH_OTHER: 0 0%

